version 2
run BusLAN10-base-1-20180110-20:24:31-336
attr configname BusLAN10-base
attr datetime 20180110-20:24:31
attr experiment BusLAN10-base
attr inifile BusLAN.ini
attr iterationvars $pa=16
attr iterationvarsf pa=16-
attr measurement $pa=16
attr network BusLAN
attr processid 336
attr repetition 0
attr replication #0
attr resultdir results
attr runnumber 1
attr seedset 1
itervar pa 16
param *.numHosts 10
param **.datarate 10Mbps
param **.host[*].pingApp[*].sendInterval "truncnormal(50ms, 25ms)"
param **.host[*].pingApp[*].packetSize "truncnormal(1024B, 512B)"
param **.queueType "\"DropTailQueue\""
param **.frameCapacity 10
param **.mtu 1024B
param **.host[*].numPingApps 16
param **.host[*].pingApp[*].typename "\"PingApp\""
param **.host[*].pingApp[*].count 1
param **.host[*].pingApp[*].startTime "truncnormal(200ms, 100ms)"
param **.host[*].pingApp[*].destAddr "\"*\""

scalar BusLAN.host[0].networkLayer.arp sentReply:count 0
attr title "ARP replies sent, count"
scalar BusLAN.host[0].networkLayer.arp sentReq:count 0
attr title "ARP request sent, count"
scalar BusLAN.host[0].networkLayer.arp failedARPResolution:count 0
attr title "ARP failed resolutions, count"
scalar BusLAN.host[0].networkLayer.arp completedARPResolution:count 0
attr title "ARP completed resolutions, count"
scalar BusLAN.host[0].networkLayer.arp initiatedARPResolution:count 0
attr title "ARP initiated resolutions, count"
scalar BusLAN.host[0].lo0.lo droppedPkBitError:count 0
attr interpolationmode none
attr source dropPkBitError
attr title "packets dropped/bit error, count"
scalar BusLAN.host[0].lo0.lo droppedPkBitError:sum(packetBytes) 0
attr interpolationmode none
attr source dropPkBitError
attr title "packets dropped/bit error, sum(packetBytes)"
scalar BusLAN.host[0].lo0.lo rcvdPkFromHL:count 1582
attr interpolationmode none
attr source packetReceivedFromUpper
attr title "packets received from higher layer, count"
scalar BusLAN.host[0].lo0.lo rcvdPkFromHL:sum(packetBytes) 1129454
attr interpolationmode none
attr source packetReceivedFromUpper
attr title "packets received from higher layer, sum(packetBytes)"
scalar BusLAN.host[0].lo0.lo passedUpPk:count 1582
attr interpolationmode none
attr source packetSentToUpper
attr title "packets passed to higher layer, count"
scalar BusLAN.host[0].lo0.lo passedUpPk:sum(packetBytes) 1129454
attr interpolationmode none
attr source packetSentToUpper
attr title "packets passed to higher layer, sum(packetBytes)"
scalar BusLAN.host[0].eth[0].queue.pauseQueue queueLength:max nan
attr interpolationmode sample-hold
attr title "queue length, max"
scalar BusLAN.host[0].eth[0].queue.pauseQueue queueLength:timeavg nan
attr interpolationmode sample-hold
attr title "queue length, timeavg"
statistic BusLAN.host[0].eth[0].queue.pauseQueue queueingTime:histogram
field count 0
field mean nan
field stddev nan
field min nan
field max nan
field sum 0
field sqrsum 0
attr interpolationmode none
attr title "queueing time, histogram"
bin	-inf	0
bin	-0.5	0
bin	-0.46666666666667	0
bin	-0.43333333333333	0
bin	-0.4	0
bin	-0.36666666666667	0
bin	-0.33333333333333	0
bin	-0.3	0
bin	-0.26666666666667	0
bin	-0.23333333333333	0
bin	-0.2	0
bin	-0.16666666666667	0
bin	-0.13333333333333	0
bin	-0.1	0
bin	-0.066666666666667	0
bin	-0.033333333333333	0
bin	0	0
bin	0.033333333333333	0
bin	0.066666666666667	0
bin	0.1	0
bin	0.13333333333333	0
bin	0.16666666666667	0
bin	0.2	0
bin	0.23333333333333	0
bin	0.26666666666667	0
bin	0.3	0
bin	0.33333333333333	0
bin	0.36666666666667	0
bin	0.4	0
bin	0.43333333333333	0
bin	0.46666666666667	0
bin	0.5	0
scalar BusLAN.host[0].eth[0].queue.pauseQueue dropPk:count 0
attr interpolationmode none
attr source dropPkByQueue
attr title "dropped packets, count"
scalar BusLAN.host[0].eth[0].queue.pauseQueue dropPk:sum(packetBytes) 0
attr interpolationmode none
attr source dropPkByQueue
attr title "dropped packets, sum(packetBytes)"
scalar BusLAN.host[0].eth[0].queue.pauseQueue rcvdPk:count 0
attr interpolationmode none
attr title "received packets, count"
scalar BusLAN.host[0].eth[0].queue.pauseQueue rcvdPk:sum(packetBytes) 0
attr interpolationmode none
attr title "received packets, sum(packetBytes)"
scalar BusLAN.host[0].eth[0].queue.dataQueue queueLength:max 10
attr interpolationmode sample-hold
attr title "queue length, max"
scalar BusLAN.host[0].eth[0].queue.dataQueue queueLength:timeavg 0.7381438089302
attr interpolationmode sample-hold
attr title "queue length, timeavg"
statistic BusLAN.host[0].eth[0].queue.dataQueue queueingTime:histogram
field count 13207
field mean 0.00083859483439975
field stddev 0.0008955045262465
field min 0
field max 0.006398687901
field sum 11.075321977917
field sqrsum 0.019877973676304
attr interpolationmode none
attr title "queueing time, histogram"
bin	-inf	0
bin	-0.0020849737855	0
bin	-0.0018069772807667	0
bin	-0.0015289807760333	0
bin	-0.0012509842713	0
bin	-0.00097298776656667	0
bin	-0.00069499126183333	0
bin	-0.0004169947571	0
bin	-0.00013899825236667	4505
bin	0.00013899825236667	700
bin	0.0004169947571	771
bin	0.00069499126183333	3065
bin	0.00097298776656667	892
bin	0.0012509842713	812
bin	0.0015289807760333	736
bin	0.0018069772807667	468
bin	0.0020849737855	383
bin	0.0023629702902333	253
bin	0.0026409667949667	176
bin	0.0029189632997	133
bin	0.0031969598044333	90
bin	0.0034749563091667	79
bin	0.0037529528139	46
bin	0.0040309493186333	35
bin	0.0043089458233667	21
bin	0.0045869423281	14
bin	0.0048649388328333	11
bin	0.0051429353375667	3
bin	0.0054209318423	8
bin	0.0056989283470333	2
bin	0.0059769248517667	3
bin	0.0062549213565	1
scalar BusLAN.host[0].eth[0].queue.dataQueue dropPk:count 14
attr interpolationmode none
attr source dropPkByQueue
attr title "dropped packets, count"
scalar BusLAN.host[0].eth[0].queue.dataQueue dropPk:sum(packetBytes) 8127
attr interpolationmode none
attr source dropPkByQueue
attr title "dropped packets, sum(packetBytes)"
scalar BusLAN.host[0].eth[0].queue.dataQueue rcvdPk:count 13219
attr interpolationmode none
attr title "received packets, count"
scalar BusLAN.host[0].eth[0].queue.dataQueue rcvdPk:sum(packetBytes) 9522713
attr interpolationmode none
attr title "received packets, sum(packetBytes)"
scalar BusLAN.host[0].eth[0].mac "simulated time" 20
scalar BusLAN.host[0].eth[0].mac full-duplex 1
scalar BusLAN.host[0].eth[0].mac "frames/sec sent" 881.65
scalar BusLAN.host[0].eth[0].mac "frames/sec rcvd" 883.7
scalar BusLAN.host[0].eth[0].mac "bits/sec sent" 5086273.6
scalar BusLAN.host[0].eth[0].mac "bits/sec rcvd" 5088972.4
scalar BusLAN.host[0].eth[0].mac "rx channel idle (%)" -349.540504
scalar BusLAN.host[0].eth[0].mac "rx channel utilization (%)" 449.540504
scalar BusLAN.host[0].eth[0].mac rxPkFromHL:count 13207
attr interpolationmode none
attr source rxPkFromHL
attr title "packet bytes from higher layer, count"
scalar BusLAN.host[0].eth[0].mac rxPkFromHL:sum(packetBytes) 9515693
attr interpolationmode none
attr source rxPkFromHL
attr title "packet bytes from higher layer, sum(packetBytes)"
scalar BusLAN.host[0].eth[0].mac rxPausePkUnits:count 0
attr interpolationmode none
attr title "pause units received, count"
scalar BusLAN.host[0].eth[0].mac rxPausePkUnits:sum 0
attr interpolationmode none
attr title "pause units received, sum"
scalar BusLAN.host[0].eth[0].mac txPausePkUnits:count 0
attr interpolationmode none
attr title "pause units sent, count"
scalar BusLAN.host[0].eth[0].mac txPausePkUnits:sum 0
attr interpolationmode none
attr title "pause units sent, sum"
scalar BusLAN.host[0].eth[0].mac txPk:count 13207
attr interpolationmode none
attr source txPk
attr title "packets transmitted, count"
scalar BusLAN.host[0].eth[0].mac txPk:sum(packetBytes) 9515693
attr interpolationmode none
attr source txPk
attr title "packets transmitted, sum(packetBytes)"
scalar BusLAN.host[0].eth[0].mac droppedPkNotForUs:count 105930
attr interpolationmode none
attr source dropPkNotForUs
attr title "packets dropped/not for us, count"
scalar BusLAN.host[0].eth[0].mac droppedPkNotForUs:sum(packetBytes) 74742830
attr interpolationmode none
attr source dropPkNotForUs
attr title "packets dropped/not for us, sum(packetBytes)"
scalar BusLAN.host[0].eth[0].mac droppedPkBitError:count 0
attr interpolationmode none
attr source dropPkBitError
attr title "packets dropped/bit error, count"
scalar BusLAN.host[0].eth[0].mac droppedPkBitError:sum(packetBytes) 0
attr interpolationmode none
attr source dropPkBitError
attr title "packets dropped/bit error, sum(packetBytes)"
scalar BusLAN.host[0].eth[0].mac droppedPkIfaceDown:count 0
attr interpolationmode none
attr source dropPkIfaceDown
attr title "packets dropped/interface down, count"
scalar BusLAN.host[0].eth[0].mac droppedPkIfaceDown:sum(packetBytes) 0
attr interpolationmode none
attr source dropPkIfaceDown
attr title "packets dropped/interface down, sum(packetBytes)"
scalar BusLAN.host[0].eth[0].mac rxPkOk:count 13212
attr interpolationmode none
attr source rxPkOk
attr title "packets received OK, count"
scalar BusLAN.host[0].eth[0].mac rxPkOk:sum(packetBytes) 9520063
attr interpolationmode none
attr source rxPkOk
attr title "packets received OK, sum(packetBytes)"
scalar BusLAN.host[0].eth[0].mac passedUpPk:count 13212
attr interpolationmode none
attr source packetSentToUpper
attr title "packets passed to higher layer, count"
scalar BusLAN.host[0].eth[0].mac passedUpPk:sum(packetBytes) 9520063
attr interpolationmode none
attr source packetSentToUpper
attr title "packets passed to higher layer, sum(packetBytes)"
scalar BusLAN.host[0].eth[0].encap pauseSent:count 0
attr title "pause sent, count"
scalar BusLAN.host[0].eth[0].encap pauseSent:sum 0
attr title "pause sent, sum"
scalar BusLAN.host[0].eth[0].encap decapPk:count 13212
attr interpolationmode none
attr source decapPk
attr title "packets decapsulated, count"
scalar BusLAN.host[0].eth[0].encap decapPk:sum(packetBytes) 9280849
attr interpolationmode none
attr source decapPk
attr title "packets decapsulated, sum(packetBytes)"
scalar BusLAN.host[0].eth[0].encap encapPk:count 13219
attr interpolationmode none
attr source encapPk
attr title "packets encapsulated, count"
scalar BusLAN.host[0].eth[0].encap encapPk:sum(packetBytes) 9283373
attr interpolationmode none
attr source encapPk
attr title "packets encapsulated, sum(packetBytes)"
scalar BusLAN.host[0].pingApp[0] "Pings sent" 375
scalar BusLAN.host[0].pingApp[0] "ping loss rate (%)" 0
scalar BusLAN.host[0].pingApp[0] "ping out-of-order rate (%)" 0
scalar BusLAN.host[0].pingApp[0] pingRxSeq:count 287
attr interpolationmode none
attr title "ping rx seq, count"
scalar BusLAN.host[0].pingApp[0] pingTxSeq:count 287
attr interpolationmode none
attr title "ping tx seq, count"
scalar BusLAN.host[0].pingApp[0] numOutOfOrderArrivals:last nan
attr interpolationmode none
attr title "ping out-of-order arrivals, last"
scalar BusLAN.host[0].pingApp[0] numLost:last nan
attr interpolationmode none
attr title "pings lost, last"
scalar BusLAN.host[0].pingApp[0] rtt:mean 0.0037758647871406
attr interpolationmode none
attr title "ping round-trip time, mean"
attr unit s
scalar BusLAN.host[0].pingApp[1] "Pings sent" 393
scalar BusLAN.host[0].pingApp[1] "ping loss rate (%)" 0.5089058524173
scalar BusLAN.host[0].pingApp[1] "ping out-of-order rate (%)" 0
scalar BusLAN.host[0].pingApp[1] pingRxSeq:count 306
attr interpolationmode none
attr title "ping rx seq, count"
scalar BusLAN.host[0].pingApp[1] pingTxSeq:count 308
attr interpolationmode none
attr title "ping tx seq, count"
scalar BusLAN.host[0].pingApp[1] numOutOfOrderArrivals:last nan
attr interpolationmode none
attr title "ping out-of-order arrivals, last"
scalar BusLAN.host[0].pingApp[1] numLost:last 1
attr interpolationmode none
attr title "pings lost, last"
scalar BusLAN.host[0].pingApp[1] rtt:mean 0.0029781390496058
attr interpolationmode none
attr title "ping round-trip time, mean"
attr unit s
scalar BusLAN.host[0].pingApp[2] "Pings sent" 403
scalar BusLAN.host[0].pingApp[2] "ping loss rate (%)" 0.49627791563275
scalar BusLAN.host[0].pingApp[2] "ping out-of-order rate (%)" 0
scalar BusLAN.host[0].pingApp[2] pingRxSeq:count 306
attr interpolationmode none
attr title "ping rx seq, count"
scalar BusLAN.host[0].pingApp[2] pingTxSeq:count 307
attr interpolationmode none
attr title "ping tx seq, count"
scalar BusLAN.host[0].pingApp[2] numOutOfOrderArrivals:last nan
attr interpolationmode none
attr title "ping out-of-order arrivals, last"
scalar BusLAN.host[0].pingApp[2] numLost:last 2
attr interpolationmode none
attr title "pings lost, last"
scalar BusLAN.host[0].pingApp[2] rtt:mean 0.0029484701344453
attr interpolationmode none
attr title "ping round-trip time, mean"
attr unit s
scalar BusLAN.host[0].pingApp[3] "Pings sent" 387
scalar BusLAN.host[0].pingApp[3] "ping loss rate (%)" 0.25839793281654
scalar BusLAN.host[0].pingApp[3] "ping out-of-order rate (%)" 0
scalar BusLAN.host[0].pingApp[3] pingRxSeq:count 290
attr interpolationmode none
attr title "ping rx seq, count"
scalar BusLAN.host[0].pingApp[3] pingTxSeq:count 290
attr interpolationmode none
attr title "ping tx seq, count"
scalar BusLAN.host[0].pingApp[3] numOutOfOrderArrivals:last nan
attr interpolationmode none
attr title "ping out-of-order arrivals, last"
scalar BusLAN.host[0].pingApp[3] numLost:last 1
attr interpolationmode none
attr title "pings lost, last"
scalar BusLAN.host[0].pingApp[3] rtt:mean 0.0023760916997606
attr interpolationmode none
attr title "ping round-trip time, mean"
attr unit s
scalar BusLAN.host[0].pingApp[4] "Pings sent" 383
scalar BusLAN.host[0].pingApp[4] "ping loss rate (%)" 0
scalar BusLAN.host[0].pingApp[4] "ping out-of-order rate (%)" 0.26109660574413
scalar BusLAN.host[0].pingApp[4] pingRxSeq:count 289
attr interpolationmode none
attr title "ping rx seq, count"
scalar BusLAN.host[0].pingApp[4] pingTxSeq:count 289
attr interpolationmode none
attr title "ping tx seq, count"
scalar BusLAN.host[0].pingApp[4] numOutOfOrderArrivals:last 1
attr interpolationmode none
attr title "ping out-of-order arrivals, last"
scalar BusLAN.host[0].pingApp[4] numLost:last 0
attr interpolationmode none
attr title "pings lost, last"
scalar BusLAN.host[0].pingApp[4] rtt:mean 0.0036387697040039
attr interpolationmode none
attr title "ping round-trip time, mean"
attr unit s
scalar BusLAN.host[0].pingApp[5] "Pings sent" 404
scalar BusLAN.host[0].pingApp[5] "ping loss rate (%)" 0.24752475247525
scalar BusLAN.host[0].pingApp[5] "ping out-of-order rate (%)" 0.24752475247525
scalar BusLAN.host[0].pingApp[5] pingRxSeq:count 301
attr interpolationmode none
attr title "ping rx seq, count"
scalar BusLAN.host[0].pingApp[5] pingTxSeq:count 302
attr interpolationmode none
attr title "ping tx seq, count"
scalar BusLAN.host[0].pingApp[5] numOutOfOrderArrivals:last nan
attr interpolationmode none
attr title "ping out-of-order arrivals, last"
scalar BusLAN.host[0].pingApp[5] numLost:last 1
attr interpolationmode none
attr title "pings lost, last"
scalar BusLAN.host[0].pingApp[5] rtt:mean 0.0024180294826159
attr interpolationmode none
attr title "ping round-trip time, mean"
attr unit s
scalar BusLAN.host[0].pingApp[6] "Pings sent" 392
scalar BusLAN.host[0].pingApp[6] "ping loss rate (%)" 0
scalar BusLAN.host[0].pingApp[6] "ping out-of-order rate (%)" 0
scalar BusLAN.host[0].pingApp[6] pingRxSeq:count 290
attr interpolationmode none
attr title "ping rx seq, count"
scalar BusLAN.host[0].pingApp[6] pingTxSeq:count 290
attr interpolationmode none
attr title "ping tx seq, count"
scalar BusLAN.host[0].pingApp[6] numOutOfOrderArrivals:last nan
attr interpolationmode none
attr title "ping out-of-order arrivals, last"
scalar BusLAN.host[0].pingApp[6] numLost:last nan
attr interpolationmode none
attr title "pings lost, last"
scalar BusLAN.host[0].pingApp[6] rtt:mean 0.0022768319534905
attr interpolationmode none
attr title "ping round-trip time, mean"
attr unit s
scalar BusLAN.host[0].pingApp[7] "Pings sent" 392
scalar BusLAN.host[0].pingApp[7] "ping loss rate (%)" 0
scalar BusLAN.host[0].pingApp[7] "ping out-of-order rate (%)" 0.25510204081633
scalar BusLAN.host[0].pingApp[7] pingRxSeq:count 294
attr interpolationmode none
attr title "ping rx seq, count"
scalar BusLAN.host[0].pingApp[7] pingTxSeq:count 294
attr interpolationmode none
attr title "ping tx seq, count"
scalar BusLAN.host[0].pingApp[7] numOutOfOrderArrivals:last 1
attr interpolationmode none
attr title "ping out-of-order arrivals, last"
scalar BusLAN.host[0].pingApp[7] numLost:last 0
attr interpolationmode none
attr title "pings lost, last"
scalar BusLAN.host[0].pingApp[7] rtt:mean 0.0025741814229259
attr interpolationmode none
attr title "ping round-trip time, mean"
attr unit s
scalar BusLAN.host[0].pingApp[8] "Pings sent" 386
scalar BusLAN.host[0].pingApp[8] "ping loss rate (%)" 0
scalar BusLAN.host[0].pingApp[8] "ping out-of-order rate (%)" 0
scalar BusLAN.host[0].pingApp[8] pingRxSeq:count 297
attr interpolationmode none
attr title "ping rx seq, count"
scalar BusLAN.host[0].pingApp[8] pingTxSeq:count 297
attr interpolationmode none
attr title "ping tx seq, count"
scalar BusLAN.host[0].pingApp[8] numOutOfOrderArrivals:last nan
attr interpolationmode none
attr title "ping out-of-order arrivals, last"
scalar BusLAN.host[0].pingApp[8] numLost:last nan
attr interpolationmode none
attr title "pings lost, last"
scalar BusLAN.host[0].pingApp[8] rtt:mean 0.0019973943047707
attr interpolationmode none
attr title "ping round-trip time, mean"
attr unit s
scalar BusLAN.host[0].pingApp[9] "Pings sent" 381
scalar BusLAN.host[0].pingApp[9] "ping loss rate (%)" 0.5249343832021
scalar BusLAN.host[0].pingApp[9] "ping out-of-order rate (%)" 0
scalar BusLAN.host[0].pingApp[9] pingRxSeq:count 291
attr interpolationmode none
attr title "ping rx seq, count"
scalar BusLAN.host[0].pingApp[9] pingTxSeq:count 292
attr interpolationmode none
attr title "ping tx seq, count"
scalar BusLAN.host[0].pingApp[9] numOutOfOrderArrivals:last nan
attr interpolationmode none
attr title "ping out-of-order arrivals, last"
scalar BusLAN.host[0].pingApp[9] numLost:last 2
attr interpolationmode none
attr title "pings lost, last"
scalar BusLAN.host[0].pingApp[9] rtt:mean 0.003300089823659
attr interpolationmode none
attr title "ping round-trip time, mean"
attr unit s
scalar BusLAN.host[0].pingApp[10] "Pings sent" 402
scalar BusLAN.host[0].pingApp[10] "ping loss rate (%)" 0
scalar BusLAN.host[0].pingApp[10] "ping out-of-order rate (%)" 0.24875621890547
scalar BusLAN.host[0].pingApp[10] pingRxSeq:count 309
attr interpolationmode none
attr title "ping rx seq, count"
scalar BusLAN.host[0].pingApp[10] pingTxSeq:count 309
attr interpolationmode none
attr title "ping tx seq, count"
scalar BusLAN.host[0].pingApp[10] numOutOfOrderArrivals:last 1
attr interpolationmode none
attr title "ping out-of-order arrivals, last"
scalar BusLAN.host[0].pingApp[10] numLost:last 0
attr interpolationmode none
attr title "pings lost, last"
scalar BusLAN.host[0].pingApp[10] rtt:mean 0.0024468462679121
attr interpolationmode none
attr title "ping round-trip time, mean"
attr unit s
scalar BusLAN.host[0].pingApp[11] "Pings sent" 386
scalar BusLAN.host[0].pingApp[11] "ping loss rate (%)" 0
scalar BusLAN.host[0].pingApp[11] "ping out-of-order rate (%)" 0
scalar BusLAN.host[0].pingApp[11] pingRxSeq:count 288
attr interpolationmode none
attr title "ping rx seq, count"
scalar BusLAN.host[0].pingApp[11] pingTxSeq:count 288
attr interpolationmode none
attr title "ping tx seq, count"
scalar BusLAN.host[0].pingApp[11] numOutOfOrderArrivals:last nan
attr interpolationmode none
attr title "ping out-of-order arrivals, last"
scalar BusLAN.host[0].pingApp[11] numLost:last nan
attr interpolationmode none
attr title "pings lost, last"
scalar BusLAN.host[0].pingApp[11] rtt:mean 0.0035465634340866
attr interpolationmode none
attr title "ping round-trip time, mean"
attr unit s
scalar BusLAN.host[0].pingApp[12] "Pings sent" 381
scalar BusLAN.host[0].pingApp[12] "ping loss rate (%)" 0
scalar BusLAN.host[0].pingApp[12] "ping out-of-order rate (%)" 0
scalar BusLAN.host[0].pingApp[12] pingRxSeq:count 286
attr interpolationmode none
attr title "ping rx seq, count"
scalar BusLAN.host[0].pingApp[12] pingTxSeq:count 286
attr interpolationmode none
attr title "ping tx seq, count"
scalar BusLAN.host[0].pingApp[12] numOutOfOrderArrivals:last nan
attr interpolationmode none
attr title "ping out-of-order arrivals, last"
scalar BusLAN.host[0].pingApp[12] numLost:last nan
attr interpolationmode none
attr title "pings lost, last"
scalar BusLAN.host[0].pingApp[12] rtt:mean 0.0039622771497977
attr interpolationmode none
attr title "ping round-trip time, mean"
attr unit s
scalar BusLAN.host[0].pingApp[13] "Pings sent" 376
scalar BusLAN.host[0].pingApp[13] "ping loss rate (%)" 0.53191489361702
scalar BusLAN.host[0].pingApp[13] "ping out-of-order rate (%)" 0
scalar BusLAN.host[0].pingApp[13] pingRxSeq:count 290
attr interpolationmode none
attr title "ping rx seq, count"
scalar BusLAN.host[0].pingApp[13] pingTxSeq:count 291
attr interpolationmode none
attr title "ping tx seq, count"
scalar BusLAN.host[0].pingApp[13] numOutOfOrderArrivals:last nan
attr interpolationmode none
attr title "ping out-of-order arrivals, last"
scalar BusLAN.host[0].pingApp[13] numLost:last 2
attr interpolationmode none
attr title "pings lost, last"
scalar BusLAN.host[0].pingApp[13] rtt:mean 0.002993793159109
attr interpolationmode none
attr title "ping round-trip time, mean"
attr unit s
scalar BusLAN.host[0].pingApp[14] "Pings sent" 394
scalar BusLAN.host[0].pingApp[14] "ping loss rate (%)" 0
scalar BusLAN.host[0].pingApp[14] "ping out-of-order rate (%)" 0
scalar BusLAN.host[0].pingApp[14] pingRxSeq:count 300
attr interpolationmode none
attr title "ping rx seq, count"
scalar BusLAN.host[0].pingApp[14] pingTxSeq:count 300
attr interpolationmode none
attr title "ping tx seq, count"
scalar BusLAN.host[0].pingApp[14] numOutOfOrderArrivals:last nan
attr interpolationmode none
attr title "ping out-of-order arrivals, last"
scalar BusLAN.host[0].pingApp[14] numLost:last nan
attr interpolationmode none
attr title "pings lost, last"
scalar BusLAN.host[0].pingApp[14] rtt:mean 0.0033471358537176
attr interpolationmode none
attr title "ping round-trip time, mean"
attr unit s
scalar BusLAN.host[0].pingApp[15] "Pings sent" 405
scalar BusLAN.host[0].pingApp[15] "ping loss rate (%)" 0
scalar BusLAN.host[0].pingApp[15] "ping out-of-order rate (%)" 0.49382716049383
scalar BusLAN.host[0].pingApp[15] pingRxSeq:count 301
attr interpolationmode none
attr title "ping rx seq, count"
scalar BusLAN.host[0].pingApp[15] pingTxSeq:count 301
attr interpolationmode none
attr title "ping tx seq, count"
scalar BusLAN.host[0].pingApp[15] numOutOfOrderArrivals:last 2
attr interpolationmode none
attr title "ping out-of-order arrivals, last"
scalar BusLAN.host[0].pingApp[15] numLost:last 0
attr interpolationmode none
attr title "pings lost, last"
scalar BusLAN.host[0].pingApp[15] rtt:mean 0.0024044951498209
attr interpolationmode none
attr title "ping round-trip time, mean"
attr unit s
scalar BusLAN.host[1].networkLayer.arp sentReply:count 0
attr title "ARP replies sent, count"
scalar BusLAN.host[1].networkLayer.arp sentReq:count 0
attr title "ARP request sent, count"
scalar BusLAN.host[1].networkLayer.arp failedARPResolution:count 0
attr title "ARP failed resolutions, count"
scalar BusLAN.host[1].networkLayer.arp completedARPResolution:count 0
attr title "ARP completed resolutions, count"
scalar BusLAN.host[1].networkLayer.arp initiatedARPResolution:count 0
attr title "ARP initiated resolutions, count"
scalar BusLAN.host[1].lo0.lo droppedPkBitError:count 0
attr interpolationmode none
attr source dropPkBitError
attr title "packets dropped/bit error, count"
scalar BusLAN.host[1].lo0.lo droppedPkBitError:sum(packetBytes) 0
attr interpolationmode none
attr source dropPkBitError
attr title "packets dropped/bit error, sum(packetBytes)"
scalar BusLAN.host[1].lo0.lo rcvdPkFromHL:count 1394
attr interpolationmode none
attr source packetReceivedFromUpper
attr title "packets received from higher layer, count"
scalar BusLAN.host[1].lo0.lo rcvdPkFromHL:sum(packetBytes) 929768
attr interpolationmode none
attr source packetReceivedFromUpper
attr title "packets received from higher layer, sum(packetBytes)"
scalar BusLAN.host[1].lo0.lo passedUpPk:count 1394
attr interpolationmode none
attr source packetSentToUpper
attr title "packets passed to higher layer, count"
scalar BusLAN.host[1].lo0.lo passedUpPk:sum(packetBytes) 929768
attr interpolationmode none
attr source packetSentToUpper
attr title "packets passed to higher layer, sum(packetBytes)"
scalar BusLAN.host[1].eth[0].queue.pauseQueue queueLength:max nan
attr interpolationmode sample-hold
attr title "queue length, max"
scalar BusLAN.host[1].eth[0].queue.pauseQueue queueLength:timeavg nan
attr interpolationmode sample-hold
attr title "queue length, timeavg"
statistic BusLAN.host[1].eth[0].queue.pauseQueue queueingTime:histogram
field count 0
field mean nan
field stddev nan
field min nan
field max nan
field sum 0
field sqrsum 0
attr interpolationmode none
attr title "queueing time, histogram"
bin	-inf	0
bin	-0.5	0
bin	-0.46666666666667	0
bin	-0.43333333333333	0
bin	-0.4	0
bin	-0.36666666666667	0
bin	-0.33333333333333	0
bin	-0.3	0
bin	-0.26666666666667	0
bin	-0.23333333333333	0
bin	-0.2	0
bin	-0.16666666666667	0
bin	-0.13333333333333	0
bin	-0.1	0
bin	-0.066666666666667	0
bin	-0.033333333333333	0
bin	0	0
bin	0.033333333333333	0
bin	0.066666666666667	0
bin	0.1	0
bin	0.13333333333333	0
bin	0.16666666666667	0
bin	0.2	0
bin	0.23333333333333	0
bin	0.26666666666667	0
bin	0.3	0
bin	0.33333333333333	0
bin	0.36666666666667	0
bin	0.4	0
bin	0.43333333333333	0
bin	0.46666666666667	0
bin	0.5	0
scalar BusLAN.host[1].eth[0].queue.pauseQueue dropPk:count 0
attr interpolationmode none
attr source dropPkByQueue
attr title "dropped packets, count"
scalar BusLAN.host[1].eth[0].queue.pauseQueue dropPk:sum(packetBytes) 0
attr interpolationmode none
attr source dropPkByQueue
attr title "dropped packets, sum(packetBytes)"
scalar BusLAN.host[1].eth[0].queue.pauseQueue rcvdPk:count 0
attr interpolationmode none
attr title "received packets, count"
scalar BusLAN.host[1].eth[0].queue.pauseQueue rcvdPk:sum(packetBytes) 0
attr interpolationmode none
attr title "received packets, sum(packetBytes)"
scalar BusLAN.host[1].eth[0].queue.dataQueue queueLength:max 10
attr interpolationmode sample-hold
attr title "queue length, max"
scalar BusLAN.host[1].eth[0].queue.dataQueue queueLength:timeavg 0.6805620612673
attr interpolationmode sample-hold
attr title "queue length, timeavg"
statistic BusLAN.host[1].eth[0].queue.dataQueue queueingTime:histogram
field count 12846
field mean 0.00079434282003888
field stddev 0.00088216151290044
field min 0
field max 0.005888395493
field sum 10.204127866219
field sqrsum 0.018101669473346
attr interpolationmode none
attr title "queueing time, histogram"
bin	-inf	0
bin	-0.00145265371	0
bin	-0.0012589665486667	0
bin	-0.0010652793873333	0
bin	-0.000871592226	0
bin	-0.00067790506466667	0
bin	-0.00048421790333333	0
bin	-0.000290530742	0
bin	-9.6843580666667e-005	4555
bin	9.6843580666667e-005	500
bin	0.000290530742	493
bin	0.00048421790333333	495
bin	0.00067790506466667	2690
bin	0.000871592226	646
bin	0.0010652793873333	570
bin	0.0012589665486667	525
bin	0.00145265371	416
bin	0.0016463408713333	500
bin	0.0018400280326667	295
bin	0.002033715194	254
bin	0.0022274023553333	173
bin	0.0024210895166667	145
bin	0.002614776678	126
bin	0.0028084638393333	112
bin	0.0030021510006667	67
bin	0.003195838162	57
bin	0.0033895253233333	50
bin	0.0035832124846667	39
bin	0.003776899646	34
bin	0.0039705868073333	19
bin	0.0041642739686667	19
bin	0.00435796113	66
scalar BusLAN.host[1].eth[0].queue.dataQueue dropPk:count 9
attr interpolationmode none
attr source dropPkByQueue
attr title "dropped packets, count"
scalar BusLAN.host[1].eth[0].queue.dataQueue dropPk:sum(packetBytes) 5845
attr interpolationmode none
attr source dropPkByQueue
attr title "dropped packets, sum(packetBytes)"
scalar BusLAN.host[1].eth[0].queue.dataQueue rcvdPk:count 12858
attr interpolationmode none
attr title "received packets, count"
scalar BusLAN.host[1].eth[0].queue.dataQueue rcvdPk:sum(packetBytes) 9000089
attr interpolationmode none
attr title "received packets, sum(packetBytes)"
scalar BusLAN.host[1].eth[0].mac "simulated time" 20
scalar BusLAN.host[1].eth[0].mac full-duplex 1
scalar BusLAN.host[1].eth[0].mac "frames/sec sent" 848.7
scalar BusLAN.host[1].eth[0].mac "frames/sec rcvd" 850.85
scalar BusLAN.host[1].eth[0].mac "bits/sec sent" 4755903.6
scalar BusLAN.host[1].eth[0].mac "bits/sec rcvd" 4759135.6
scalar BusLAN.host[1].eth[0].mac "rx channel idle (%)" -352.865292
scalar BusLAN.host[1].eth[0].mac "rx channel utilization (%)" 452.865292
scalar BusLAN.host[1].eth[0].mac rxPkFromHL:count 12846
attr interpolationmode none
attr source rxPkFromHL
attr title "packet bytes from higher layer, count"
scalar BusLAN.host[1].eth[0].mac rxPkFromHL:sum(packetBytes) 8992279
attr interpolationmode none
attr source rxPkFromHL
attr title "packet bytes from higher layer, sum(packetBytes)"
scalar BusLAN.host[1].eth[0].mac rxPausePkUnits:count 0
attr interpolationmode none
attr title "pause units received, count"
scalar BusLAN.host[1].eth[0].mac rxPausePkUnits:sum 0
attr interpolationmode none
attr title "pause units received, sum"
scalar BusLAN.host[1].eth[0].mac txPausePkUnits:count 0
attr interpolationmode none
attr title "pause units sent, count"
scalar BusLAN.host[1].eth[0].mac txPausePkUnits:sum 0
attr interpolationmode none
attr title "pause units sent, sum"
scalar BusLAN.host[1].eth[0].mac txPk:count 12846
attr interpolationmode none
attr source txPk
attr title "packets transmitted, count"
scalar BusLAN.host[1].eth[0].mac txPk:sum(packetBytes) 8992055
attr interpolationmode none
attr source txPk
attr title "packets transmitted, sum(packetBytes)"
scalar BusLAN.host[1].eth[0].mac droppedPkNotForUs:count 106649
attr interpolationmode none
attr source dropPkNotForUs
attr title "packets dropped/not for us, count"
scalar BusLAN.host[1].eth[0].mac droppedPkNotForUs:sum(packetBytes) 75788536
attr interpolationmode none
attr source dropPkNotForUs
attr title "packets dropped/not for us, sum(packetBytes)"
scalar BusLAN.host[1].eth[0].mac droppedPkBitError:count 0
attr interpolationmode none
attr source dropPkBitError
attr title "packets dropped/bit error, count"
scalar BusLAN.host[1].eth[0].mac droppedPkBitError:sum(packetBytes) 0
attr interpolationmode none
attr source dropPkBitError
attr title "packets dropped/bit error, sum(packetBytes)"
scalar BusLAN.host[1].eth[0].mac droppedPkIfaceDown:count 0
attr interpolationmode none
attr source dropPkIfaceDown
attr title "packets dropped/interface down, count"
scalar BusLAN.host[1].eth[0].mac droppedPkIfaceDown:sum(packetBytes) 0
attr interpolationmode none
attr source dropPkIfaceDown
attr title "packets dropped/interface down, sum(packetBytes)"
scalar BusLAN.host[1].eth[0].mac rxPkOk:count 12854
attr interpolationmode none
attr source rxPkOk
attr title "packets received OK, count"
scalar BusLAN.host[1].eth[0].mac rxPkOk:sum(packetBytes) 8997995
attr interpolationmode none
attr source rxPkOk
attr title "packets received OK, sum(packetBytes)"
scalar BusLAN.host[1].eth[0].mac passedUpPk:count 12854
attr interpolationmode none
attr source packetSentToUpper
attr title "packets passed to higher layer, count"
scalar BusLAN.host[1].eth[0].mac passedUpPk:sum(packetBytes) 8997995
attr interpolationmode none
attr source packetSentToUpper
attr title "packets passed to higher layer, sum(packetBytes)"
scalar BusLAN.host[1].eth[0].encap pauseSent:count 0
attr title "pause sent, count"
scalar BusLAN.host[1].eth[0].encap pauseSent:sum 0
attr title "pause sent, sum"
scalar BusLAN.host[1].eth[0].encap decapPk:count 12854
attr interpolationmode none
attr source decapPk
attr title "packets decapsulated, count"
scalar BusLAN.host[1].eth[0].encap decapPk:sum(packetBytes) 8765409
attr interpolationmode none
attr source decapPk
attr title "packets decapsulated, sum(packetBytes)"
scalar BusLAN.host[1].eth[0].encap encapPk:count 12858
attr interpolationmode none
attr source encapPk
attr title "packets encapsulated, count"
scalar BusLAN.host[1].eth[0].encap encapPk:sum(packetBytes) 8767431
attr interpolationmode none
attr source encapPk
attr title "packets encapsulated, sum(packetBytes)"
scalar BusLAN.host[1].pingApp[0] "Pings sent" 402
scalar BusLAN.host[1].pingApp[0] "ping loss rate (%)" 0.24875621890547
scalar BusLAN.host[1].pingApp[0] "ping out-of-order rate (%)" 0
scalar BusLAN.host[1].pingApp[0] pingRxSeq:count 311
attr interpolationmode none
attr title "ping rx seq, count"
scalar BusLAN.host[1].pingApp[0] pingTxSeq:count 312
attr interpolationmode none
attr title "ping tx seq, count"
scalar BusLAN.host[1].pingApp[0] numOutOfOrderArrivals:last nan
attr interpolationmode none
attr title "ping out-of-order arrivals, last"
scalar BusLAN.host[1].pingApp[0] numLost:last 1
attr interpolationmode none
attr title "pings lost, last"
scalar BusLAN.host[1].pingApp[0] rtt:mean 0.0033419333508201
attr interpolationmode none
attr title "ping round-trip time, mean"
attr unit s
scalar BusLAN.host[1].pingApp[1] "Pings sent" 380
scalar BusLAN.host[1].pingApp[1] "ping loss rate (%)" 0
scalar BusLAN.host[1].pingApp[1] "ping out-of-order rate (%)" 0
scalar BusLAN.host[1].pingApp[1] pingRxSeq:count 287
attr interpolationmode none
attr title "ping rx seq, count"
scalar BusLAN.host[1].pingApp[1] pingTxSeq:count 287
attr interpolationmode none
attr title "ping tx seq, count"
scalar BusLAN.host[1].pingApp[1] numOutOfOrderArrivals:last nan
attr interpolationmode none
attr title "ping out-of-order arrivals, last"
scalar BusLAN.host[1].pingApp[1] numLost:last nan
attr interpolationmode none
attr title "pings lost, last"
scalar BusLAN.host[1].pingApp[1] rtt:mean 0.003348504062051
attr interpolationmode none
attr title "ping round-trip time, mean"
attr unit s
scalar BusLAN.host[1].pingApp[2] "Pings sent" 382
scalar BusLAN.host[1].pingApp[2] "ping loss rate (%)" 0
scalar BusLAN.host[1].pingApp[2] "ping out-of-order rate (%)" 0
scalar BusLAN.host[1].pingApp[2] pingRxSeq:count 287
attr interpolationmode none
attr title "ping rx seq, count"
scalar BusLAN.host[1].pingApp[2] pingTxSeq:count 287
attr interpolationmode none
attr title "ping tx seq, count"
scalar BusLAN.host[1].pingApp[2] numOutOfOrderArrivals:last nan
attr interpolationmode none
attr title "ping out-of-order arrivals, last"
scalar BusLAN.host[1].pingApp[2] numLost:last nan
attr interpolationmode none
attr title "pings lost, last"
scalar BusLAN.host[1].pingApp[2] rtt:mean 0.0015432095413373
attr interpolationmode none
attr title "ping round-trip time, mean"
attr unit s
scalar BusLAN.host[1].pingApp[3] "Pings sent" 388
scalar BusLAN.host[1].pingApp[3] "ping loss rate (%)" 0
scalar BusLAN.host[1].pingApp[3] "ping out-of-order rate (%)" 0
scalar BusLAN.host[1].pingApp[3] pingRxSeq:count 293
attr interpolationmode none
attr title "ping rx seq, count"
scalar BusLAN.host[1].pingApp[3] pingTxSeq:count 293
attr interpolationmode none
attr title "ping tx seq, count"
scalar BusLAN.host[1].pingApp[3] numOutOfOrderArrivals:last nan
attr interpolationmode none
attr title "ping out-of-order arrivals, last"
scalar BusLAN.host[1].pingApp[3] numLost:last nan
attr interpolationmode none
attr title "pings lost, last"
scalar BusLAN.host[1].pingApp[3] rtt:mean 0.00178985966815
attr interpolationmode none
attr title "ping round-trip time, mean"
attr unit s
scalar BusLAN.host[1].pingApp[4] "Pings sent" 369
scalar BusLAN.host[1].pingApp[4] "ping loss rate (%)" 0
scalar BusLAN.host[1].pingApp[4] "ping out-of-order rate (%)" 0
scalar BusLAN.host[1].pingApp[4] pingRxSeq:count 275
attr interpolationmode none
attr title "ping rx seq, count"
scalar BusLAN.host[1].pingApp[4] pingTxSeq:count 274
attr interpolationmode none
attr title "ping tx seq, count"
scalar BusLAN.host[1].pingApp[4] numOutOfOrderArrivals:last nan
attr interpolationmode none
attr title "ping out-of-order arrivals, last"
scalar BusLAN.host[1].pingApp[4] numLost:last nan
attr interpolationmode none
attr title "pings lost, last"
scalar BusLAN.host[1].pingApp[4] rtt:mean 0.002456441456768
attr interpolationmode none
attr title "ping round-trip time, mean"
attr unit s
scalar BusLAN.host[1].pingApp[5] "Pings sent" 386
scalar BusLAN.host[1].pingApp[5] "ping loss rate (%)" 0
scalar BusLAN.host[1].pingApp[5] "ping out-of-order rate (%)" 0
scalar BusLAN.host[1].pingApp[5] pingRxSeq:count 292
attr interpolationmode none
attr title "ping rx seq, count"
scalar BusLAN.host[1].pingApp[5] pingTxSeq:count 292
attr interpolationmode none
attr title "ping tx seq, count"
scalar BusLAN.host[1].pingApp[5] numOutOfOrderArrivals:last nan
attr interpolationmode none
attr title "ping out-of-order arrivals, last"
scalar BusLAN.host[1].pingApp[5] numLost:last nan
attr interpolationmode none
attr title "pings lost, last"
scalar BusLAN.host[1].pingApp[5] rtt:mean 0.0030492271040927
attr interpolationmode none
attr title "ping round-trip time, mean"
attr unit s
scalar BusLAN.host[1].pingApp[6] "Pings sent" 385
scalar BusLAN.host[1].pingApp[6] "ping loss rate (%)" 0
scalar BusLAN.host[1].pingApp[6] "ping out-of-order rate (%)" 0
scalar BusLAN.host[1].pingApp[6] pingRxSeq:count 301
attr interpolationmode none
attr title "ping rx seq, count"
scalar BusLAN.host[1].pingApp[6] pingTxSeq:count 301
attr interpolationmode none
attr title "ping tx seq, count"
scalar BusLAN.host[1].pingApp[6] numOutOfOrderArrivals:last nan
attr interpolationmode none
attr title "ping out-of-order arrivals, last"
scalar BusLAN.host[1].pingApp[6] numLost:last nan
attr interpolationmode none
attr title "pings lost, last"
scalar BusLAN.host[1].pingApp[6] rtt:mean 0.0018655514034096
attr interpolationmode none
attr title "ping round-trip time, mean"
attr unit s
scalar BusLAN.host[1].pingApp[7] "Pings sent" 371
scalar BusLAN.host[1].pingApp[7] "ping loss rate (%)" 0.26954177897574
scalar BusLAN.host[1].pingApp[7] "ping out-of-order rate (%)" 0.26954177897574
scalar BusLAN.host[1].pingApp[7] pingRxSeq:count 276
attr interpolationmode none
attr title "ping rx seq, count"
scalar BusLAN.host[1].pingApp[7] pingTxSeq:count 277
attr interpolationmode none
attr title "ping tx seq, count"
scalar BusLAN.host[1].pingApp[7] numOutOfOrderArrivals:last 1
attr interpolationmode none
attr title "ping out-of-order arrivals, last"
scalar BusLAN.host[1].pingApp[7] numLost:last 1
attr interpolationmode none
attr title "pings lost, last"
scalar BusLAN.host[1].pingApp[7] rtt:mean 0.0034281231191275
attr interpolationmode none
attr title "ping round-trip time, mean"
attr unit s
scalar BusLAN.host[1].pingApp[8] "Pings sent" 380
scalar BusLAN.host[1].pingApp[8] "ping loss rate (%)" 0
scalar BusLAN.host[1].pingApp[8] "ping out-of-order rate (%)" 0
scalar BusLAN.host[1].pingApp[8] pingRxSeq:count 290
attr interpolationmode none
attr title "ping rx seq, count"
scalar BusLAN.host[1].pingApp[8] pingTxSeq:count 290
attr interpolationmode none
attr title "ping tx seq, count"
scalar BusLAN.host[1].pingApp[8] numOutOfOrderArrivals:last nan
attr interpolationmode none
attr title "ping out-of-order arrivals, last"
scalar BusLAN.host[1].pingApp[8] numLost:last nan
attr interpolationmode none
attr title "pings lost, last"
scalar BusLAN.host[1].pingApp[8] rtt:mean 0.0023668662350342
attr interpolationmode none
attr title "ping round-trip time, mean"
attr unit s
scalar BusLAN.host[1].pingApp[9] "Pings sent" 394
scalar BusLAN.host[1].pingApp[9] "ping loss rate (%)" 0.76142131979695
scalar BusLAN.host[1].pingApp[9] "ping out-of-order rate (%)" 0.50761421319797
scalar BusLAN.host[1].pingApp[9] pingRxSeq:count 289
attr interpolationmode none
attr title "ping rx seq, count"
scalar BusLAN.host[1].pingApp[9] pingTxSeq:count 292
attr interpolationmode none
attr title "ping tx seq, count"
scalar BusLAN.host[1].pingApp[9] numOutOfOrderArrivals:last 2
attr interpolationmode none
attr title "ping out-of-order arrivals, last"
scalar BusLAN.host[1].pingApp[9] numLost:last 3
attr interpolationmode none
attr title "pings lost, last"
scalar BusLAN.host[1].pingApp[9] rtt:mean 0.0040386049906832
attr interpolationmode none
attr title "ping round-trip time, mean"
attr unit s
scalar BusLAN.host[1].pingApp[10] "Pings sent" 394
scalar BusLAN.host[1].pingApp[10] "ping loss rate (%)" 0
scalar BusLAN.host[1].pingApp[10] "ping out-of-order rate (%)" 0.25380710659898
scalar BusLAN.host[1].pingApp[10] pingRxSeq:count 296
attr interpolationmode none
attr title "ping rx seq, count"
scalar BusLAN.host[1].pingApp[10] pingTxSeq:count 296
attr interpolationmode none
attr title "ping tx seq, count"
scalar BusLAN.host[1].pingApp[10] numOutOfOrderArrivals:last 1
attr interpolationmode none
attr title "ping out-of-order arrivals, last"
scalar BusLAN.host[1].pingApp[10] numLost:last 0
attr interpolationmode none
attr title "pings lost, last"
scalar BusLAN.host[1].pingApp[10] rtt:mean 0.002671821992026
attr interpolationmode none
attr title "ping round-trip time, mean"
attr unit s
scalar BusLAN.host[1].pingApp[11] "Pings sent" 382
scalar BusLAN.host[1].pingApp[11] "ping loss rate (%)" 0
scalar BusLAN.host[1].pingApp[11] "ping out-of-order rate (%)" 0
scalar BusLAN.host[1].pingApp[11] pingRxSeq:count 289
attr interpolationmode none
attr title "ping rx seq, count"
scalar BusLAN.host[1].pingApp[11] pingTxSeq:count 289
attr interpolationmode none
attr title "ping tx seq, count"
scalar BusLAN.host[1].pingApp[11] numOutOfOrderArrivals:last nan
attr interpolationmode none
attr title "ping out-of-order arrivals, last"
scalar BusLAN.host[1].pingApp[11] numLost:last nan
attr interpolationmode none
attr title "pings lost, last"
scalar BusLAN.host[1].pingApp[11] rtt:mean 0.0025236515383698
attr interpolationmode none
attr title "ping round-trip time, mean"
attr unit s
scalar BusLAN.host[1].pingApp[12] "Pings sent" 384
scalar BusLAN.host[1].pingApp[12] "ping loss rate (%)" 0
scalar BusLAN.host[1].pingApp[12] "ping out-of-order rate (%)" 0.26041666666667
scalar BusLAN.host[1].pingApp[12] pingRxSeq:count 291
attr interpolationmode none
attr title "ping rx seq, count"
scalar BusLAN.host[1].pingApp[12] pingTxSeq:count 291
attr interpolationmode none
attr title "ping tx seq, count"
scalar BusLAN.host[1].pingApp[12] numOutOfOrderArrivals:last 1
attr interpolationmode none
attr title "ping out-of-order arrivals, last"
scalar BusLAN.host[1].pingApp[12] numLost:last 0
attr interpolationmode none
attr title "pings lost, last"
scalar BusLAN.host[1].pingApp[12] rtt:mean 0.003360596456947
attr interpolationmode none
attr title "ping round-trip time, mean"
attr unit s
scalar BusLAN.host[1].pingApp[13] "Pings sent" 380
scalar BusLAN.host[1].pingApp[13] "ping loss rate (%)" 0.26315789473684
scalar BusLAN.host[1].pingApp[13] "ping out-of-order rate (%)" 0
scalar BusLAN.host[1].pingApp[13] pingRxSeq:count 286
attr interpolationmode none
attr title "ping rx seq, count"
scalar BusLAN.host[1].pingApp[13] pingTxSeq:count 286
attr interpolationmode none
attr title "ping tx seq, count"
scalar BusLAN.host[1].pingApp[13] numOutOfOrderArrivals:last nan
attr interpolationmode none
attr title "ping out-of-order arrivals, last"
scalar BusLAN.host[1].pingApp[13] numLost:last nan
attr interpolationmode none
attr title "pings lost, last"
scalar BusLAN.host[1].pingApp[13] rtt:mean 0.0028659235841496
attr interpolationmode none
attr title "ping round-trip time, mean"
attr unit s
scalar BusLAN.host[1].pingApp[14] "Pings sent" 390
scalar BusLAN.host[1].pingApp[14] "ping loss rate (%)" 0
scalar BusLAN.host[1].pingApp[14] "ping out-of-order rate (%)" 0.25641025641026
scalar BusLAN.host[1].pingApp[14] pingRxSeq:count 297
attr interpolationmode none
attr title "ping rx seq, count"
scalar BusLAN.host[1].pingApp[14] pingTxSeq:count 297
attr interpolationmode none
attr title "ping tx seq, count"
scalar BusLAN.host[1].pingApp[14] numOutOfOrderArrivals:last 1
attr interpolationmode none
attr title "ping out-of-order arrivals, last"
scalar BusLAN.host[1].pingApp[14] numLost:last 0
attr interpolationmode none
attr title "pings lost, last"
scalar BusLAN.host[1].pingApp[14] rtt:mean 0.003617302702097
attr interpolationmode none
attr title "ping round-trip time, mean"
attr unit s
scalar BusLAN.host[1].pingApp[15] "Pings sent" 383
scalar BusLAN.host[1].pingApp[15] "ping loss rate (%)" 0
scalar BusLAN.host[1].pingApp[15] "ping out-of-order rate (%)" 0
scalar BusLAN.host[1].pingApp[15] pingRxSeq:count 289
attr interpolationmode none
attr title "ping rx seq, count"
scalar BusLAN.host[1].pingApp[15] pingTxSeq:count 289
attr interpolationmode none
attr title "ping tx seq, count"
scalar BusLAN.host[1].pingApp[15] numOutOfOrderArrivals:last nan
attr interpolationmode none
attr title "ping out-of-order arrivals, last"
scalar BusLAN.host[1].pingApp[15] numLost:last nan
attr interpolationmode none
attr title "pings lost, last"
scalar BusLAN.host[1].pingApp[15] rtt:mean 0.0019644384193835
attr interpolationmode none
attr title "ping round-trip time, mean"
attr unit s
scalar BusLAN.host[2].networkLayer.arp sentReply:count 0
attr title "ARP replies sent, count"
scalar BusLAN.host[2].networkLayer.arp sentReq:count 0
attr title "ARP request sent, count"
scalar BusLAN.host[2].networkLayer.arp failedARPResolution:count 0
attr title "ARP failed resolutions, count"
scalar BusLAN.host[2].networkLayer.arp completedARPResolution:count 0
attr title "ARP completed resolutions, count"
scalar BusLAN.host[2].networkLayer.arp initiatedARPResolution:count 0
attr title "ARP initiated resolutions, count"
scalar BusLAN.host[2].lo0.lo droppedPkBitError:count 0
attr interpolationmode none
attr source dropPkBitError
attr title "packets dropped/bit error, count"
scalar BusLAN.host[2].lo0.lo droppedPkBitError:sum(packetBytes) 0
attr interpolationmode none
attr source dropPkBitError
attr title "packets dropped/bit error, sum(packetBytes)"
scalar BusLAN.host[2].lo0.lo rcvdPkFromHL:count 1356
attr interpolationmode none
attr source packetReceivedFromUpper
attr title "packets received from higher layer, count"
scalar BusLAN.host[2].lo0.lo rcvdPkFromHL:sum(packetBytes) 877334
attr interpolationmode none
attr source packetReceivedFromUpper
attr title "packets received from higher layer, sum(packetBytes)"
scalar BusLAN.host[2].lo0.lo passedUpPk:count 1356
attr interpolationmode none
attr source packetSentToUpper
attr title "packets passed to higher layer, count"
scalar BusLAN.host[2].lo0.lo passedUpPk:sum(packetBytes) 877334
attr interpolationmode none
attr source packetSentToUpper
attr title "packets passed to higher layer, sum(packetBytes)"
scalar BusLAN.host[2].eth[0].queue.pauseQueue queueLength:max nan
attr interpolationmode sample-hold
attr title "queue length, max"
scalar BusLAN.host[2].eth[0].queue.pauseQueue queueLength:timeavg nan
attr interpolationmode sample-hold
attr title "queue length, timeavg"
statistic BusLAN.host[2].eth[0].queue.pauseQueue queueingTime:histogram
field count 0
field mean nan
field stddev nan
field min nan
field max nan
field sum 0
field sqrsum 0
attr interpolationmode none
attr title "queueing time, histogram"
bin	-inf	0
bin	-0.5	0
bin	-0.46666666666667	0
bin	-0.43333333333333	0
bin	-0.4	0
bin	-0.36666666666667	0
bin	-0.33333333333333	0
bin	-0.3	0
bin	-0.26666666666667	0
bin	-0.23333333333333	0
bin	-0.2	0
bin	-0.16666666666667	0
bin	-0.13333333333333	0
bin	-0.1	0
bin	-0.066666666666667	0
bin	-0.033333333333333	0
bin	0	0
bin	0.033333333333333	0
bin	0.066666666666667	0
bin	0.1	0
bin	0.13333333333333	0
bin	0.16666666666667	0
bin	0.2	0
bin	0.23333333333333	0
bin	0.26666666666667	0
bin	0.3	0
bin	0.33333333333333	0
bin	0.36666666666667	0
bin	0.4	0
bin	0.43333333333333	0
bin	0.46666666666667	0
bin	0.5	0
scalar BusLAN.host[2].eth[0].queue.pauseQueue dropPk:count 0
attr interpolationmode none
attr source dropPkByQueue
attr title "dropped packets, count"
scalar BusLAN.host[2].eth[0].queue.pauseQueue dropPk:sum(packetBytes) 0
attr interpolationmode none
attr source dropPkByQueue
attr title "dropped packets, sum(packetBytes)"
scalar BusLAN.host[2].eth[0].queue.pauseQueue rcvdPk:count 0
attr interpolationmode none
attr title "received packets, count"
scalar BusLAN.host[2].eth[0].queue.pauseQueue rcvdPk:sum(packetBytes) 0
attr interpolationmode none
attr title "received packets, sum(packetBytes)"
scalar BusLAN.host[2].eth[0].queue.dataQueue queueLength:max 10
attr interpolationmode sample-hold
attr title "queue length, max"
scalar BusLAN.host[2].eth[0].queue.dataQueue queueLength:timeavg 0.63609770720865
attr interpolationmode sample-hold
attr title "queue length, timeavg"
statistic BusLAN.host[2].eth[0].queue.dataQueue queueingTime:histogram
field count 12767
field mean 0.00074712681588701
field stddev 0.00083320228084345
field min 0
field max 0.005932975104
field sum 9.5385680584294
field sqrsum 0.015989009618504
attr interpolationmode none
attr title "queueing time, histogram"
bin	-inf	0
bin	-0.0012877278255	0
bin	-0.0011160307821	0
bin	-0.0009443337387	0
bin	-0.0007726366953	0
bin	-0.0006009396519	0
bin	-0.0004292426085	0
bin	-0.0002575455651	0
bin	-8.58485217e-005	4657
bin	8.58485217e-005	505
bin	0.0002575455651	417
bin	0.0004292426085	475
bin	0.0006009396519	396
bin	0.0007726366953	2722
bin	0.0009443337387	570
bin	0.0011160307821	444
bin	0.0012877278255	418
bin	0.0014594248689	354
bin	0.0016311219123	437
bin	0.0018028189557	281
bin	0.0019745159991	208
bin	0.0021462130425	170
bin	0.0023179100859	140
bin	0.0024896071293	124
bin	0.0026613041727	99
bin	0.0028330012161	83
bin	0.0030046982595	55
bin	0.0031763953029	51
bin	0.0033480923463	45
bin	0.0035197893897	19
bin	0.0036914864331	23
bin	0.0038631834765	74
scalar BusLAN.host[2].eth[0].queue.dataQueue dropPk:count 7
attr interpolationmode none
attr source dropPkByQueue
attr title "dropped packets, count"
scalar BusLAN.host[2].eth[0].queue.dataQueue dropPk:sum(packetBytes) 3559
attr interpolationmode none
attr source dropPkByQueue
attr title "dropped packets, sum(packetBytes)"
scalar BusLAN.host[2].eth[0].queue.dataQueue rcvdPk:count 12774
attr interpolationmode none
attr title "received packets, count"
scalar BusLAN.host[2].eth[0].queue.dataQueue rcvdPk:sum(packetBytes) 8761239
attr interpolationmode none
attr title "received packets, sum(packetBytes)"
scalar BusLAN.host[2].eth[0].mac "simulated time" 20
scalar BusLAN.host[2].eth[0].mac full-duplex 1
scalar BusLAN.host[2].eth[0].mac "frames/sec sent" 840.65
scalar BusLAN.host[2].eth[0].mac "frames/sec rcvd" 842.35
scalar BusLAN.host[2].eth[0].mac "bits/sec sent" 4611121.2
scalar BusLAN.host[2].eth[0].mac "bits/sec rcvd" 4612496
scalar BusLAN.host[2].eth[0].mac "rx channel idle (%)" -354.318268
scalar BusLAN.host[2].eth[0].mac "rx channel utilization (%)" 454.318268
scalar BusLAN.host[2].eth[0].mac rxPkFromHL:count 12767
attr interpolationmode none
attr source rxPkFromHL
attr title "packet bytes from higher layer, count"
scalar BusLAN.host[2].eth[0].mac rxPkFromHL:sum(packetBytes) 8757680
attr interpolationmode none
attr source rxPkFromHL
attr title "packet bytes from higher layer, sum(packetBytes)"
scalar BusLAN.host[2].eth[0].mac rxPausePkUnits:count 0
attr interpolationmode none
attr title "pause units received, count"
scalar BusLAN.host[2].eth[0].mac rxPausePkUnits:sum 0
attr interpolationmode none
attr title "pause units received, sum"
scalar BusLAN.host[2].eth[0].mac txPausePkUnits:count 0
attr interpolationmode none
attr title "pause units sent, count"
scalar BusLAN.host[2].eth[0].mac txPausePkUnits:sum 0
attr interpolationmode none
attr title "pause units sent, sum"
scalar BusLAN.host[2].eth[0].mac txPk:count 12767
attr interpolationmode none
attr source txPk
attr title "packets transmitted, count"
scalar BusLAN.host[2].eth[0].mac txPk:sum(packetBytes) 8757680
attr interpolationmode none
attr source txPk
attr title "packets transmitted, sum(packetBytes)"
scalar BusLAN.host[2].eth[0].mac droppedPkNotForUs:count 106817
attr interpolationmode none
attr source dropPkNotForUs
attr title "packets dropped/not for us, count"
scalar BusLAN.host[2].eth[0].mac droppedPkNotForUs:sum(packetBytes) 76263201
attr interpolationmode none
attr source dropPkNotForUs
attr title "packets dropped/not for us, sum(packetBytes)"
scalar BusLAN.host[2].eth[0].mac droppedPkBitError:count 0
attr interpolationmode none
attr source dropPkBitError
attr title "packets dropped/bit error, count"
scalar BusLAN.host[2].eth[0].mac droppedPkBitError:sum(packetBytes) 0
attr interpolationmode none
attr source dropPkBitError
attr title "packets dropped/bit error, sum(packetBytes)"
scalar BusLAN.host[2].eth[0].mac droppedPkIfaceDown:count 0
attr interpolationmode none
attr source dropPkIfaceDown
attr title "packets dropped/interface down, count"
scalar BusLAN.host[2].eth[0].mac droppedPkIfaceDown:sum(packetBytes) 0
attr interpolationmode none
attr source dropPkIfaceDown
attr title "packets dropped/interface down, sum(packetBytes)"
scalar BusLAN.host[2].eth[0].mac rxPkOk:count 12765
attr interpolationmode none
attr source rxPkOk
attr title "packets received OK, count"
scalar BusLAN.host[2].eth[0].mac rxPkOk:sum(packetBytes) 8757705
attr interpolationmode none
attr source rxPkOk
attr title "packets received OK, sum(packetBytes)"
scalar BusLAN.host[2].eth[0].mac passedUpPk:count 12765
attr interpolationmode none
attr source packetSentToUpper
attr title "packets passed to higher layer, count"
scalar BusLAN.host[2].eth[0].mac passedUpPk:sum(packetBytes) 8757705
attr interpolationmode none
attr source packetSentToUpper
attr title "packets passed to higher layer, sum(packetBytes)"
scalar BusLAN.host[2].eth[0].encap pauseSent:count 0
attr title "pause sent, count"
scalar BusLAN.host[2].eth[0].encap pauseSent:sum 0
attr title "pause sent, sum"
scalar BusLAN.host[2].eth[0].encap decapPk:count 12765
attr interpolationmode none
attr source decapPk
attr title "packets decapsulated, count"
scalar BusLAN.host[2].eth[0].encap decapPk:sum(packetBytes) 8526898
attr interpolationmode none
attr source decapPk
attr title "packets decapsulated, sum(packetBytes)"
scalar BusLAN.host[2].eth[0].encap encapPk:count 12774
attr interpolationmode none
attr source encapPk
attr title "packets encapsulated, count"
scalar BusLAN.host[2].eth[0].encap encapPk:sum(packetBytes) 8530270
attr interpolationmode none
attr source encapPk
attr title "packets encapsulated, sum(packetBytes)"
scalar BusLAN.host[2].pingApp[0] "Pings sent" 383
scalar BusLAN.host[2].pingApp[0] "ping loss rate (%)" 0
scalar BusLAN.host[2].pingApp[0] "ping out-of-order rate (%)" 0
scalar BusLAN.host[2].pingApp[0] pingRxSeq:count 300
attr interpolationmode none
attr title "ping rx seq, count"
scalar BusLAN.host[2].pingApp[0] pingTxSeq:count 300
attr interpolationmode none
attr title "ping tx seq, count"
scalar BusLAN.host[2].pingApp[0] numOutOfOrderArrivals:last nan
attr interpolationmode none
attr title "ping out-of-order arrivals, last"
scalar BusLAN.host[2].pingApp[0] numLost:last nan
attr interpolationmode none
attr title "pings lost, last"
scalar BusLAN.host[2].pingApp[0] rtt:mean 0.0038015694617689
attr interpolationmode none
attr title "ping round-trip time, mean"
attr unit s
scalar BusLAN.host[2].pingApp[1] "Pings sent" 377
scalar BusLAN.host[2].pingApp[1] "ping loss rate (%)" 0.26525198938992
scalar BusLAN.host[2].pingApp[1] "ping out-of-order rate (%)" 0.26525198938992
scalar BusLAN.host[2].pingApp[1] pingRxSeq:count 283
attr interpolationmode none
attr title "ping rx seq, count"
scalar BusLAN.host[2].pingApp[1] pingTxSeq:count 284
attr interpolationmode none
attr title "ping tx seq, count"
scalar BusLAN.host[2].pingApp[1] numOutOfOrderArrivals:last nan
attr interpolationmode none
attr title "ping out-of-order arrivals, last"
scalar BusLAN.host[2].pingApp[1] numLost:last 1
attr interpolationmode none
attr title "pings lost, last"
scalar BusLAN.host[2].pingApp[1] rtt:mean 0.0031770197989124
attr interpolationmode none
attr title "ping round-trip time, mean"
attr unit s
scalar BusLAN.host[2].pingApp[2] "Pings sent" 379
scalar BusLAN.host[2].pingApp[2] "ping loss rate (%)" 0
scalar BusLAN.host[2].pingApp[2] "ping out-of-order rate (%)" 0.26385224274406
scalar BusLAN.host[2].pingApp[2] pingRxSeq:count 287
attr interpolationmode none
attr title "ping rx seq, count"
scalar BusLAN.host[2].pingApp[2] pingTxSeq:count 287
attr interpolationmode none
attr title "ping tx seq, count"
scalar BusLAN.host[2].pingApp[2] numOutOfOrderArrivals:last 1
attr interpolationmode none
attr title "ping out-of-order arrivals, last"
scalar BusLAN.host[2].pingApp[2] numLost:last 0
attr interpolationmode none
attr title "pings lost, last"
scalar BusLAN.host[2].pingApp[2] rtt:mean 0.003672663489253
attr interpolationmode none
attr title "ping round-trip time, mean"
attr unit s
scalar BusLAN.host[2].pingApp[3] "Pings sent" 384
scalar BusLAN.host[2].pingApp[3] "ping loss rate (%)" 0.52083333333333
scalar BusLAN.host[2].pingApp[3] "ping out-of-order rate (%)" 0
scalar BusLAN.host[2].pingApp[3] pingRxSeq:count 286
attr interpolationmode none
attr title "ping rx seq, count"
scalar BusLAN.host[2].pingApp[3] pingTxSeq:count 287
attr interpolationmode none
attr title "ping tx seq, count"
scalar BusLAN.host[2].pingApp[3] numOutOfOrderArrivals:last nan
attr interpolationmode none
attr title "ping out-of-order arrivals, last"
scalar BusLAN.host[2].pingApp[3] numLost:last 2
attr interpolationmode none
attr title "pings lost, last"
scalar BusLAN.host[2].pingApp[3] rtt:mean 0.0030837408496094
attr interpolationmode none
attr title "ping round-trip time, mean"
attr unit s
scalar BusLAN.host[2].pingApp[4] "Pings sent" 379
scalar BusLAN.host[2].pingApp[4] "ping loss rate (%)" 0
scalar BusLAN.host[2].pingApp[4] "ping out-of-order rate (%)" 0.26385224274406
scalar BusLAN.host[2].pingApp[4] pingRxSeq:count 285
attr interpolationmode none
attr title "ping rx seq, count"
scalar BusLAN.host[2].pingApp[4] pingTxSeq:count 285
attr interpolationmode none
attr title "ping tx seq, count"
scalar BusLAN.host[2].pingApp[4] numOutOfOrderArrivals:last nan
attr interpolationmode none
attr title "ping out-of-order arrivals, last"
scalar BusLAN.host[2].pingApp[4] numLost:last nan
attr interpolationmode none
attr title "pings lost, last"
scalar BusLAN.host[2].pingApp[4] rtt:mean 0.0019544864154639
attr interpolationmode none
attr title "ping round-trip time, mean"
attr unit s
scalar BusLAN.host[2].pingApp[5] "Pings sent" 370
scalar BusLAN.host[2].pingApp[5] "ping loss rate (%)" 0
scalar BusLAN.host[2].pingApp[5] "ping out-of-order rate (%)" 0
scalar BusLAN.host[2].pingApp[5] pingRxSeq:count 286
attr interpolationmode none
attr title "ping rx seq, count"
scalar BusLAN.host[2].pingApp[5] pingTxSeq:count 286
attr interpolationmode none
attr title "ping tx seq, count"
scalar BusLAN.host[2].pingApp[5] numOutOfOrderArrivals:last nan
attr interpolationmode none
attr title "ping out-of-order arrivals, last"
scalar BusLAN.host[2].pingApp[5] numLost:last nan
attr interpolationmode none
attr title "pings lost, last"
scalar BusLAN.host[2].pingApp[5] rtt:mean 0.0016686789246255
attr interpolationmode none
attr title "ping round-trip time, mean"
attr unit s
scalar BusLAN.host[2].pingApp[6] "Pings sent" 411
scalar BusLAN.host[2].pingApp[6] "ping loss rate (%)" 0.48661800486618
scalar BusLAN.host[2].pingApp[6] "ping out-of-order rate (%)" 0
scalar BusLAN.host[2].pingApp[6] pingRxSeq:count 305
attr interpolationmode none
attr title "ping rx seq, count"
scalar BusLAN.host[2].pingApp[6] pingTxSeq:count 307
attr interpolationmode none
attr title "ping tx seq, count"
scalar BusLAN.host[2].pingApp[6] numOutOfOrderArrivals:last nan
attr interpolationmode none
attr title "ping out-of-order arrivals, last"
scalar BusLAN.host[2].pingApp[6] numLost:last 1
attr interpolationmode none
attr title "pings lost, last"
scalar BusLAN.host[2].pingApp[6] rtt:mean 0.0017978731207329
attr interpolationmode none
attr title "ping round-trip time, mean"
attr unit s
scalar BusLAN.host[2].pingApp[7] "Pings sent" 391
scalar BusLAN.host[2].pingApp[7] "ping loss rate (%)" 0.25575447570332
scalar BusLAN.host[2].pingApp[7] "ping out-of-order rate (%)" 0
scalar BusLAN.host[2].pingApp[7] pingRxSeq:count 296
attr interpolationmode none
attr title "ping rx seq, count"
scalar BusLAN.host[2].pingApp[7] pingTxSeq:count 296
attr interpolationmode none
attr title "ping tx seq, count"
scalar BusLAN.host[2].pingApp[7] numOutOfOrderArrivals:last nan
attr interpolationmode none
attr title "ping out-of-order arrivals, last"
scalar BusLAN.host[2].pingApp[7] numLost:last 1
attr interpolationmode none
attr title "pings lost, last"
scalar BusLAN.host[2].pingApp[7] rtt:mean 0.0022471871152463
attr interpolationmode none
attr title "ping round-trip time, mean"
attr unit s
scalar BusLAN.host[2].pingApp[8] "Pings sent" 382
scalar BusLAN.host[2].pingApp[8] "ping loss rate (%)" 0
scalar BusLAN.host[2].pingApp[8] "ping out-of-order rate (%)" 0
scalar BusLAN.host[2].pingApp[8] pingRxSeq:count 289
attr interpolationmode none
attr title "ping rx seq, count"
scalar BusLAN.host[2].pingApp[8] pingTxSeq:count 289
attr interpolationmode none
attr title "ping tx seq, count"
scalar BusLAN.host[2].pingApp[8] numOutOfOrderArrivals:last nan
attr interpolationmode none
attr title "ping out-of-order arrivals, last"
scalar BusLAN.host[2].pingApp[8] numLost:last nan
attr interpolationmode none
attr title "pings lost, last"
scalar BusLAN.host[2].pingApp[8] rtt:mean 0.0019050523609962
attr interpolationmode none
attr title "ping round-trip time, mean"
attr unit s
scalar BusLAN.host[2].pingApp[9] "Pings sent" 387
scalar BusLAN.host[2].pingApp[9] "ping loss rate (%)" 0
scalar BusLAN.host[2].pingApp[9] "ping out-of-order rate (%)" 0
scalar BusLAN.host[2].pingApp[9] pingRxSeq:count 288
attr interpolationmode none
attr title "ping rx seq, count"
scalar BusLAN.host[2].pingApp[9] pingTxSeq:count 288
attr interpolationmode none
attr title "ping tx seq, count"
scalar BusLAN.host[2].pingApp[9] numOutOfOrderArrivals:last nan
attr interpolationmode none
attr title "ping out-of-order arrivals, last"
scalar BusLAN.host[2].pingApp[9] numLost:last nan
attr interpolationmode none
attr title "pings lost, last"
scalar BusLAN.host[2].pingApp[9] rtt:mean 0.0023373682191369
attr interpolationmode none
attr title "ping round-trip time, mean"
attr unit s
scalar BusLAN.host[2].pingApp[10] "Pings sent" 370
scalar BusLAN.host[2].pingApp[10] "ping loss rate (%)" 0.27027027027027
scalar BusLAN.host[2].pingApp[10] "ping out-of-order rate (%)" 0
scalar BusLAN.host[2].pingApp[10] pingRxSeq:count 278
attr interpolationmode none
attr title "ping rx seq, count"
scalar BusLAN.host[2].pingApp[10] pingTxSeq:count 279
attr interpolationmode none
attr title "ping tx seq, count"
scalar BusLAN.host[2].pingApp[10] numOutOfOrderArrivals:last nan
attr interpolationmode none
attr title "ping out-of-order arrivals, last"
scalar BusLAN.host[2].pingApp[10] numLost:last 1
attr interpolationmode none
attr title "pings lost, last"
scalar BusLAN.host[2].pingApp[10] rtt:mean 0.0034051721945462
attr interpolationmode none
attr title "ping round-trip time, mean"
attr unit s
scalar BusLAN.host[2].pingApp[11] "Pings sent" 384
scalar BusLAN.host[2].pingApp[11] "ping loss rate (%)" 0
scalar BusLAN.host[2].pingApp[11] "ping out-of-order rate (%)" 0.26041666666667
scalar BusLAN.host[2].pingApp[11] pingRxSeq:count 297
attr interpolationmode none
attr title "ping rx seq, count"
scalar BusLAN.host[2].pingApp[11] pingTxSeq:count 297
attr interpolationmode none
attr title "ping tx seq, count"
scalar BusLAN.host[2].pingApp[11] numOutOfOrderArrivals:last 1
attr interpolationmode none
attr title "ping out-of-order arrivals, last"
scalar BusLAN.host[2].pingApp[11] numLost:last 0
attr interpolationmode none
attr title "pings lost, last"
scalar BusLAN.host[2].pingApp[11] rtt:mean 0.0014576295969476
attr interpolationmode none
attr title "ping round-trip time, mean"
attr unit s
scalar BusLAN.host[2].pingApp[12] "Pings sent" 393
scalar BusLAN.host[2].pingApp[12] "ping loss rate (%)" 0.5089058524173
scalar BusLAN.host[2].pingApp[12] "ping out-of-order rate (%)" 0
scalar BusLAN.host[2].pingApp[12] pingRxSeq:count 307
attr interpolationmode none
attr title "ping rx seq, count"
scalar BusLAN.host[2].pingApp[12] pingTxSeq:count 309
attr interpolationmode none
attr title "ping tx seq, count"
scalar BusLAN.host[2].pingApp[12] numOutOfOrderArrivals:last nan
attr interpolationmode none
attr title "ping out-of-order arrivals, last"
scalar BusLAN.host[2].pingApp[12] numLost:last 2
attr interpolationmode none
attr title "pings lost, last"
scalar BusLAN.host[2].pingApp[12] rtt:mean 0.0028053274286151
attr interpolationmode none
attr title "ping round-trip time, mean"
attr unit s
scalar BusLAN.host[2].pingApp[13] "Pings sent" 378
scalar BusLAN.host[2].pingApp[13] "ping loss rate (%)" 0
scalar BusLAN.host[2].pingApp[13] "ping out-of-order rate (%)" 0.26455026455026
scalar BusLAN.host[2].pingApp[13] pingRxSeq:count 285
attr interpolationmode none
attr title "ping rx seq, count"
scalar BusLAN.host[2].pingApp[13] pingTxSeq:count 285
attr interpolationmode none
attr title "ping tx seq, count"
scalar BusLAN.host[2].pingApp[13] numOutOfOrderArrivals:last 1
attr interpolationmode none
attr title "ping out-of-order arrivals, last"
scalar BusLAN.host[2].pingApp[13] numLost:last 0
attr interpolationmode none
attr title "pings lost, last"
scalar BusLAN.host[2].pingApp[13] rtt:mean 0.0021604492541955
attr interpolationmode none
attr title "ping round-trip time, mean"
attr unit s
scalar BusLAN.host[2].pingApp[14] "Pings sent" 389
scalar BusLAN.host[2].pingApp[14] "ping loss rate (%)" 0
scalar BusLAN.host[2].pingApp[14] "ping out-of-order rate (%)" 0
scalar BusLAN.host[2].pingApp[14] pingRxSeq:count 282
attr interpolationmode none
attr title "ping rx seq, count"
scalar BusLAN.host[2].pingApp[14] pingTxSeq:count 282
attr interpolationmode none
attr title "ping tx seq, count"
scalar BusLAN.host[2].pingApp[14] numOutOfOrderArrivals:last nan
attr interpolationmode none
attr title "ping out-of-order arrivals, last"
scalar BusLAN.host[2].pingApp[14] numLost:last nan
attr interpolationmode none
attr title "pings lost, last"
scalar BusLAN.host[2].pingApp[14] rtt:mean 0.0021541417898249
attr interpolationmode none
attr title "ping round-trip time, mean"
attr unit s
scalar BusLAN.host[2].pingApp[15] "Pings sent" 381
scalar BusLAN.host[2].pingApp[15] "ping loss rate (%)" 0.26246719160105
scalar BusLAN.host[2].pingApp[15] "ping out-of-order rate (%)" 0
scalar BusLAN.host[2].pingApp[15] pingRxSeq:count 288
attr interpolationmode none
attr title "ping rx seq, count"
scalar BusLAN.host[2].pingApp[15] pingTxSeq:count 289
attr interpolationmode none
attr title "ping tx seq, count"
scalar BusLAN.host[2].pingApp[15] numOutOfOrderArrivals:last nan
attr interpolationmode none
attr title "ping out-of-order arrivals, last"
scalar BusLAN.host[2].pingApp[15] numLost:last nan
attr interpolationmode none
attr title "pings lost, last"
scalar BusLAN.host[2].pingApp[15] rtt:mean 0.0030638909611693
attr interpolationmode none
attr title "ping round-trip time, mean"
attr unit s
scalar BusLAN.host[3].networkLayer.arp sentReply:count 0
attr title "ARP replies sent, count"
scalar BusLAN.host[3].networkLayer.arp sentReq:count 0
attr title "ARP request sent, count"
scalar BusLAN.host[3].networkLayer.arp failedARPResolution:count 0
attr title "ARP failed resolutions, count"
scalar BusLAN.host[3].networkLayer.arp completedARPResolution:count 0
attr title "ARP completed resolutions, count"
scalar BusLAN.host[3].networkLayer.arp initiatedARPResolution:count 0
attr title "ARP initiated resolutions, count"
scalar BusLAN.host[3].lo0.lo droppedPkBitError:count 0
attr interpolationmode none
attr source dropPkBitError
attr title "packets dropped/bit error, count"
scalar BusLAN.host[3].lo0.lo droppedPkBitError:sum(packetBytes) 0
attr interpolationmode none
attr source dropPkBitError
attr title "packets dropped/bit error, sum(packetBytes)"
scalar BusLAN.host[3].lo0.lo rcvdPkFromHL:count 1456
attr interpolationmode none
attr source packetReceivedFromUpper
attr title "packets received from higher layer, count"
scalar BusLAN.host[3].lo0.lo rcvdPkFromHL:sum(packetBytes) 933268
attr interpolationmode none
attr source packetReceivedFromUpper
attr title "packets received from higher layer, sum(packetBytes)"
scalar BusLAN.host[3].lo0.lo passedUpPk:count 1456
attr interpolationmode none
attr source packetSentToUpper
attr title "packets passed to higher layer, count"
scalar BusLAN.host[3].lo0.lo passedUpPk:sum(packetBytes) 933268
attr interpolationmode none
attr source packetSentToUpper
attr title "packets passed to higher layer, sum(packetBytes)"
scalar BusLAN.host[3].eth[0].queue.pauseQueue queueLength:max nan
attr interpolationmode sample-hold
attr title "queue length, max"
scalar BusLAN.host[3].eth[0].queue.pauseQueue queueLength:timeavg nan
attr interpolationmode sample-hold
attr title "queue length, timeavg"
statistic BusLAN.host[3].eth[0].queue.pauseQueue queueingTime:histogram
field count 0
field mean nan
field stddev nan
field min nan
field max nan
field sum 0
field sqrsum 0
attr interpolationmode none
attr title "queueing time, histogram"
bin	-inf	0
bin	-0.5	0
bin	-0.46666666666667	0
bin	-0.43333333333333	0
bin	-0.4	0
bin	-0.36666666666667	0
bin	-0.33333333333333	0
bin	-0.3	0
bin	-0.26666666666667	0
bin	-0.23333333333333	0
bin	-0.2	0
bin	-0.16666666666667	0
bin	-0.13333333333333	0
bin	-0.1	0
bin	-0.066666666666667	0
bin	-0.033333333333333	0
bin	0	0
bin	0.033333333333333	0
bin	0.066666666666667	0
bin	0.1	0
bin	0.13333333333333	0
bin	0.16666666666667	0
bin	0.2	0
bin	0.23333333333333	0
bin	0.26666666666667	0
bin	0.3	0
bin	0.33333333333333	0
bin	0.36666666666667	0
bin	0.4	0
bin	0.43333333333333	0
bin	0.46666666666667	0
bin	0.5	0
scalar BusLAN.host[3].eth[0].queue.pauseQueue dropPk:count 0
attr interpolationmode none
attr source dropPkByQueue
attr title "dropped packets, count"
scalar BusLAN.host[3].eth[0].queue.pauseQueue dropPk:sum(packetBytes) 0
attr interpolationmode none
attr source dropPkByQueue
attr title "dropped packets, sum(packetBytes)"
scalar BusLAN.host[3].eth[0].queue.pauseQueue rcvdPk:count 0
attr interpolationmode none
attr title "received packets, count"
scalar BusLAN.host[3].eth[0].queue.pauseQueue rcvdPk:sum(packetBytes) 0
attr interpolationmode none
attr title "received packets, sum(packetBytes)"
scalar BusLAN.host[3].eth[0].queue.dataQueue queueLength:max 10
attr interpolationmode sample-hold
attr title "queue length, max"
scalar BusLAN.host[3].eth[0].queue.dataQueue queueLength:timeavg 0.68072402836264
attr interpolationmode sample-hold
attr title "queue length, timeavg"
statistic BusLAN.host[3].eth[0].queue.dataQueue queueingTime:histogram
field count 13115
field mean 0.00077848667383076
field stddev 0.00085952494004843
field min 0
field max 0.006582134881
field sum 10.20985272729
field sqrsum 0.017636636159291
attr interpolationmode none
attr title "queueing time, histogram"
bin	-inf	0
bin	-0.0018560969545	0
bin	-0.0016086173605667	0
bin	-0.0013611377666333	0
bin	-0.0011136581727	0
bin	-0.00086617857876667	0
bin	-0.00061869898483333	0
bin	-0.0003712193909	0
bin	-0.00012373979696667	4700
bin	0.00012373979696667	660
bin	0.0003712193909	722
bin	0.00061869898483333	2950
bin	0.00086617857876667	815
bin	0.0011136581727	720
bin	0.0013611377666333	572
bin	0.0016086173605667	565
bin	0.0018560969545	360
bin	0.0021035765484333	270
bin	0.0023510561423667	210
bin	0.0025985357363	154
bin	0.0028460153302333	109
bin	0.0030934949241667	84
bin	0.0033409745181	73
bin	0.0035884541120333	40
bin	0.0038359337059667	37
bin	0.0040834132999	28
bin	0.0043308928938333	15
bin	0.0045783724877667	13
bin	0.0048258520817	5
bin	0.0050733316756333	5
bin	0.0053208112695667	4
bin	0.0055682908635	4
scalar BusLAN.host[3].eth[0].queue.dataQueue dropPk:count 3
attr interpolationmode none
attr source dropPkByQueue
attr title "dropped packets, count"
scalar BusLAN.host[3].eth[0].queue.dataQueue dropPk:sum(packetBytes) 1604
attr interpolationmode none
attr source dropPkByQueue
attr title "dropped packets, sum(packetBytes)"
scalar BusLAN.host[3].eth[0].queue.dataQueue rcvdPk:count 13118
attr interpolationmode none
attr title "received packets, count"
scalar BusLAN.host[3].eth[0].queue.dataQueue rcvdPk:sum(packetBytes) 9010238
attr interpolationmode none
attr title "received packets, sum(packetBytes)"
scalar BusLAN.host[3].eth[0].mac "simulated time" 20
scalar BusLAN.host[3].eth[0].mac full-duplex 1
scalar BusLAN.host[3].eth[0].mac "frames/sec sent" 861.15
scalar BusLAN.host[3].eth[0].mac "frames/sec rcvd" 862.5
scalar BusLAN.host[3].eth[0].mac "bits/sec sent" 4728721.2
scalar BusLAN.host[3].eth[0].mac "bits/sec rcvd" 4727572.8
scalar BusLAN.host[3].eth[0].mac "rx channel idle (%)" -353.129148
scalar BusLAN.host[3].eth[0].mac "rx channel utilization (%)" 453.129148
scalar BusLAN.host[3].eth[0].mac rxPkFromHL:count 13115
attr interpolationmode none
attr source rxPkFromHL
attr title "packet bytes from higher layer, count"
scalar BusLAN.host[3].eth[0].mac rxPkFromHL:sum(packetBytes) 9008634
attr interpolationmode none
attr source rxPkFromHL
attr title "packet bytes from higher layer, sum(packetBytes)"
scalar BusLAN.host[3].eth[0].mac rxPausePkUnits:count 0
attr interpolationmode none
attr title "pause units received, count"
scalar BusLAN.host[3].eth[0].mac rxPausePkUnits:sum 0
attr interpolationmode none
attr title "pause units received, sum"
scalar BusLAN.host[3].eth[0].mac txPausePkUnits:count 0
attr interpolationmode none
attr title "pause units sent, count"
scalar BusLAN.host[3].eth[0].mac txPausePkUnits:sum 0
attr interpolationmode none
attr title "pause units sent, sum"
scalar BusLAN.host[3].eth[0].mac txPk:count 13115
attr interpolationmode none
attr source txPk
attr title "packets transmitted, count"
scalar BusLAN.host[3].eth[0].mac txPk:sum(packetBytes) 9008634
attr interpolationmode none
attr source txPk
attr title "packets transmitted, sum(packetBytes)"
scalar BusLAN.host[3].eth[0].mac droppedPkNotForUs:count 106126
attr interpolationmode none
attr source dropPkNotForUs
attr title "packets dropped/not for us, count"
scalar BusLAN.host[3].eth[0].mac droppedPkNotForUs:sum(packetBytes) 75765358
attr interpolationmode none
attr source dropPkNotForUs
attr title "packets dropped/not for us, sum(packetBytes)"
scalar BusLAN.host[3].eth[0].mac droppedPkBitError:count 0
attr interpolationmode none
attr source dropPkBitError
attr title "packets dropped/bit error, count"
scalar BusLAN.host[3].eth[0].mac droppedPkBitError:sum(packetBytes) 0
attr interpolationmode none
attr source dropPkBitError
attr title "packets dropped/bit error, sum(packetBytes)"
scalar BusLAN.host[3].eth[0].mac droppedPkIfaceDown:count 0
attr interpolationmode none
attr source dropPkIfaceDown
attr title "packets dropped/interface down, count"
scalar BusLAN.host[3].eth[0].mac droppedPkIfaceDown:sum(packetBytes) 0
attr interpolationmode none
attr source dropPkIfaceDown
attr title "packets dropped/interface down, sum(packetBytes)"
scalar BusLAN.host[3].eth[0].mac rxPkOk:count 13108
attr interpolationmode none
attr source rxPkOk
attr title "packets received OK, count"
scalar BusLAN.host[3].eth[0].mac rxPkOk:sum(packetBytes) 9004594
attr interpolationmode none
attr source rxPkOk
attr title "packets received OK, sum(packetBytes)"
scalar BusLAN.host[3].eth[0].mac passedUpPk:count 13108
attr interpolationmode none
attr source packetSentToUpper
attr title "packets passed to higher layer, count"
scalar BusLAN.host[3].eth[0].mac passedUpPk:sum(packetBytes) 9004594
attr interpolationmode none
attr source packetSentToUpper
attr title "packets passed to higher layer, sum(packetBytes)"
scalar BusLAN.host[3].eth[0].encap pauseSent:count 0
attr title "pause sent, count"
scalar BusLAN.host[3].eth[0].encap pauseSent:sum 0
attr title "pause sent, sum"
scalar BusLAN.host[3].eth[0].encap decapPk:count 13108
attr interpolationmode none
attr source decapPk
attr title "packets decapsulated, count"
scalar BusLAN.host[3].eth[0].encap decapPk:sum(packetBytes) 8766115
attr interpolationmode none
attr source decapPk
attr title "packets decapsulated, sum(packetBytes)"
scalar BusLAN.host[3].eth[0].encap encapPk:count 13118
attr interpolationmode none
attr source encapPk
attr title "packets encapsulated, count"
scalar BusLAN.host[3].eth[0].encap encapPk:sum(packetBytes) 8771579
attr interpolationmode none
attr source encapPk
attr title "packets encapsulated, sum(packetBytes)"
scalar BusLAN.host[3].pingApp[0] "Pings sent" 373
scalar BusLAN.host[3].pingApp[0] "ping loss rate (%)" 0
scalar BusLAN.host[3].pingApp[0] "ping out-of-order rate (%)" 0
scalar BusLAN.host[3].pingApp[0] pingRxSeq:count 285
attr interpolationmode none
attr title "ping rx seq, count"
scalar BusLAN.host[3].pingApp[0] pingTxSeq:count 285
attr interpolationmode none
attr title "ping tx seq, count"
scalar BusLAN.host[3].pingApp[0] numOutOfOrderArrivals:last nan
attr interpolationmode none
attr title "ping out-of-order arrivals, last"
scalar BusLAN.host[3].pingApp[0] numLost:last nan
attr interpolationmode none
attr title "pings lost, last"
scalar BusLAN.host[3].pingApp[0] rtt:mean 0.0028654535780469
attr interpolationmode none
attr title "ping round-trip time, mean"
attr unit s
scalar BusLAN.host[3].pingApp[1] "Pings sent" 394
scalar BusLAN.host[3].pingApp[1] "ping loss rate (%)" 0
scalar BusLAN.host[3].pingApp[1] "ping out-of-order rate (%)" 0
scalar BusLAN.host[3].pingApp[1] pingRxSeq:count 303
attr interpolationmode none
attr title "ping rx seq, count"
scalar BusLAN.host[3].pingApp[1] pingTxSeq:count 303
attr interpolationmode none
attr title "ping tx seq, count"
scalar BusLAN.host[3].pingApp[1] numOutOfOrderArrivals:last nan
attr interpolationmode none
attr title "ping out-of-order arrivals, last"
scalar BusLAN.host[3].pingApp[1] numLost:last nan
attr interpolationmode none
attr title "pings lost, last"
scalar BusLAN.host[3].pingApp[1] rtt:mean 0.0020959382156207
attr interpolationmode none
attr title "ping round-trip time, mean"
attr unit s
scalar BusLAN.host[3].pingApp[2] "Pings sent" 389
scalar BusLAN.host[3].pingApp[2] "ping loss rate (%)" 0.25706940874036
scalar BusLAN.host[3].pingApp[2] "ping out-of-order rate (%)" 0
scalar BusLAN.host[3].pingApp[2] pingRxSeq:count 289
attr interpolationmode none
attr title "ping rx seq, count"
scalar BusLAN.host[3].pingApp[2] pingTxSeq:count 290
attr interpolationmode none
attr title "ping tx seq, count"
scalar BusLAN.host[3].pingApp[2] numOutOfOrderArrivals:last nan
attr interpolationmode none
attr title "ping out-of-order arrivals, last"
scalar BusLAN.host[3].pingApp[2] numLost:last 1
attr interpolationmode none
attr title "pings lost, last"
scalar BusLAN.host[3].pingApp[2] rtt:mean 0.0023129315878817
attr interpolationmode none
attr title "ping round-trip time, mean"
attr unit s
scalar BusLAN.host[3].pingApp[3] "Pings sent" 390
scalar BusLAN.host[3].pingApp[3] "ping loss rate (%)" 0.25641025641026
scalar BusLAN.host[3].pingApp[3] "ping out-of-order rate (%)" 0
scalar BusLAN.host[3].pingApp[3] pingRxSeq:count 287
attr interpolationmode none
attr title "ping rx seq, count"
scalar BusLAN.host[3].pingApp[3] pingTxSeq:count 288
attr interpolationmode none
attr title "ping tx seq, count"
scalar BusLAN.host[3].pingApp[3] numOutOfOrderArrivals:last nan
attr interpolationmode none
attr title "ping out-of-order arrivals, last"
scalar BusLAN.host[3].pingApp[3] numLost:last 1
attr interpolationmode none
attr title "pings lost, last"
scalar BusLAN.host[3].pingApp[3] rtt:mean 0.0029613661860847
attr interpolationmode none
attr title "ping round-trip time, mean"
attr unit s
scalar BusLAN.host[3].pingApp[4] "Pings sent" 387
scalar BusLAN.host[3].pingApp[4] "ping loss rate (%)" 0
scalar BusLAN.host[3].pingApp[4] "ping out-of-order rate (%)" 0
scalar BusLAN.host[3].pingApp[4] pingRxSeq:count 299
attr interpolationmode none
attr title "ping rx seq, count"
scalar BusLAN.host[3].pingApp[4] pingTxSeq:count 299
attr interpolationmode none
attr title "ping tx seq, count"
[...]
bin	-0.33333333333333	0
bin	-0.3	0
bin	-0.26666666666667	0
bin	-0.23333333333333	0
bin	-0.2	0
bin	-0.16666666666667	0
bin	-0.13333333333333	0
bin	-0.1	0
bin	-0.066666666666667	0
bin	-0.033333333333333	0
bin	0	0
bin	0.033333333333333	0
bin	0.066666666666667	0
bin	0.1	0
bin	0.13333333333333	0
bin	0.16666666666667	0
bin	0.2	0
bin	0.23333333333333	0
bin	0.26666666666667	0
bin	0.3	0
bin	0.33333333333333	0
bin	0.36666666666667	0
bin	0.4	0
bin	0.43333333333333	0
bin	0.46666666666667	0
bin	0.5	0
scalar BusLAN.host[9].eth[0].queue.pauseQueue dropPk:count 0
attr interpolationmode none
attr source dropPkByQueue
attr title "dropped packets, count"
scalar BusLAN.host[9].eth[0].queue.pauseQueue dropPk:sum(packetBytes) 0
attr interpolationmode none
attr source dropPkByQueue
attr title "dropped packets, sum(packetBytes)"
scalar BusLAN.host[9].eth[0].queue.pauseQueue rcvdPk:count 0
attr interpolationmode none
attr title "received packets, count"
scalar BusLAN.host[9].eth[0].queue.pauseQueue rcvdPk:sum(packetBytes) 0
attr interpolationmode none
attr title "received packets, sum(packetBytes)"
scalar BusLAN.host[9].eth[0].queue.dataQueue queueLength:max 10
attr interpolationmode sample-hold
attr title "queue length, max"
scalar BusLAN.host[9].eth[0].queue.dataQueue queueLength:timeavg 0.81508548658998
attr interpolationmode sample-hold
attr title "queue length, timeavg"
statistic BusLAN.host[9].eth[0].queue.dataQueue queueingTime:histogram
field count 13173
field mean 0.00092827073689406
field stddev 0.00098401803978326
field min 0
field max 0.006374095793
field sum 12.228110417105
field sqrsum 0.024105332740204
attr interpolationmode none
attr title "queueing time, histogram"
bin	-inf	0
bin	-0.001955739806	0
bin	-0.0016949744985333	0
bin	-0.0014342091910667	0
bin	-0.0011734438836	0
bin	-0.00091267857613333	0
bin	-0.00065191326866667	0
bin	-0.0003911479612	0
bin	-0.00013038265373333	4252
bin	0.00013038265373333	643
bin	0.0003911479612	663
bin	0.00065191326866667	2798
bin	0.00091267857613333	863
bin	0.0011734438836	724
bin	0.0014342091910667	847
bin	0.0016949744985333	539
bin	0.001955739806	486
bin	0.0022165051134667	348
bin	0.0024772704209333	241
bin	0.0027380357284	193
bin	0.0029988010358667	154
bin	0.0032595663433333	103
bin	0.0035203316508	88
bin	0.0037810969582667	64
bin	0.0040418622657333	48
bin	0.0043026275732	32
bin	0.0045633928806667	34
bin	0.0048241581881333	13
bin	0.0050849234956	16
bin	0.0053456888030667	12
bin	0.0056064541105333	5
bin	0.005867219418	7
scalar BusLAN.host[9].eth[0].queue.dataQueue dropPk:count 1
attr interpolationmode none
attr source dropPkByQueue
attr title "dropped packets, count"
scalar BusLAN.host[9].eth[0].queue.dataQueue dropPk:sum(packetBytes) 652
attr interpolationmode none
attr source dropPkByQueue
attr title "dropped packets, sum(packetBytes)"
scalar BusLAN.host[9].eth[0].queue.dataQueue rcvdPk:count 13172
attr interpolationmode none
attr title "received packets, count"
scalar BusLAN.host[9].eth[0].queue.dataQueue rcvdPk:sum(packetBytes) 9748552
attr interpolationmode none
attr title "received packets, sum(packetBytes)"
scalar BusLAN.host[9].eth[0].mac "simulated time" 20
scalar BusLAN.host[9].eth[0].mac full-duplex 1
scalar BusLAN.host[9].eth[0].mac "frames/sec sent" 872.65
scalar BusLAN.host[9].eth[0].mac "frames/sec rcvd" 874.35
scalar BusLAN.host[9].eth[0].mac "bits/sec sent" 5162260
scalar BusLAN.host[9].eth[0].mac "bits/sec rcvd" 5162750.8
scalar BusLAN.host[9].eth[0].mac "rx channel idle (%)" -348.208672
scalar BusLAN.host[9].eth[0].mac "rx channel utilization (%)" 448.208672
scalar BusLAN.host[9].eth[0].mac rxPkFromHL:count 13173
attr interpolationmode none
attr source rxPkFromHL
attr title "packet bytes from higher layer, count"
scalar BusLAN.host[9].eth[0].mac rxPkFromHL:sum(packetBytes) 9748866
attr interpolationmode none
attr source rxPkFromHL
attr title "packet bytes from higher layer, sum(packetBytes)"
scalar BusLAN.host[9].eth[0].mac rxPausePkUnits:count 0
attr interpolationmode none
attr title "pause units received, count"
scalar BusLAN.host[9].eth[0].mac rxPausePkUnits:sum 0
attr interpolationmode none
attr title "pause units received, sum"
scalar BusLAN.host[9].eth[0].mac txPausePkUnits:count 0
attr interpolationmode none
attr title "pause units sent, count"
scalar BusLAN.host[9].eth[0].mac txPausePkUnits:sum 0
attr interpolationmode none
attr title "pause units sent, sum"
scalar BusLAN.host[9].eth[0].mac txPk:count 13174
attr interpolationmode none
attr source txPk
attr title "packets transmitted, count"
scalar BusLAN.host[9].eth[0].mac txPk:sum(packetBytes) 9749904
attr interpolationmode none
attr source txPk
attr title "packets transmitted, sum(packetBytes)"
scalar BusLAN.host[9].eth[0].mac droppedPkNotForUs:count 105857
attr interpolationmode none
attr source dropPkNotForUs
attr title "packets dropped/not for us, count"
scalar BusLAN.host[9].eth[0].mac droppedPkNotForUs:sum(packetBytes) 74129067
attr interpolationmode none
attr source dropPkNotForUs
attr title "packets dropped/not for us, sum(packetBytes)"
scalar BusLAN.host[9].eth[0].mac droppedPkBitError:count 0
attr interpolationmode none
attr source dropPkBitError
attr title "packets dropped/bit error, count"
scalar BusLAN.host[9].eth[0].mac droppedPkBitError:sum(packetBytes) 0
attr interpolationmode none
attr source dropPkBitError
attr title "packets dropped/bit error, sum(packetBytes)"
scalar BusLAN.host[9].eth[0].mac droppedPkIfaceDown:count 0
attr interpolationmode none
attr source dropPkIfaceDown
attr title "packets dropped/interface down, count"
scalar BusLAN.host[9].eth[0].mac droppedPkIfaceDown:sum(packetBytes) 0
attr interpolationmode none
attr source dropPkIfaceDown
attr title "packets dropped/interface down, sum(packetBytes)"
scalar BusLAN.host[9].eth[0].mac rxPkOk:count 13172
attr interpolationmode none
attr source rxPkOk
attr title "packets received OK, count"
scalar BusLAN.host[9].eth[0].mac rxPkOk:sum(packetBytes) 9749046
attr interpolationmode none
attr source rxPkOk
attr title "packets received OK, sum(packetBytes)"
scalar BusLAN.host[9].eth[0].mac passedUpPk:count 13172
attr interpolationmode none
attr source packetSentToUpper
attr title "packets passed to higher layer, count"
scalar BusLAN.host[9].eth[0].mac passedUpPk:sum(packetBytes) 9749046
attr interpolationmode none
attr source packetSentToUpper
attr title "packets passed to higher layer, sum(packetBytes)"
scalar BusLAN.host[9].eth[0].encap pauseSent:count 0
attr title "pause sent, count"
scalar BusLAN.host[9].eth[0].encap pauseSent:sum 0
attr title "pause sent, sum"
scalar BusLAN.host[9].eth[0].encap decapPk:count 13172
attr interpolationmode none
attr source decapPk
attr title "packets decapsulated, count"
scalar BusLAN.host[9].eth[0].encap decapPk:sum(packetBytes) 9510703
attr interpolationmode none
attr source decapPk
attr title "packets decapsulated, sum(packetBytes)"
scalar BusLAN.host[9].eth[0].encap encapPk:count 13172
attr interpolationmode none
attr source encapPk
attr title "packets encapsulated, count"
scalar BusLAN.host[9].eth[0].encap encapPk:sum(packetBytes) 9510209
attr interpolationmode none
attr source encapPk
attr title "packets encapsulated, sum(packetBytes)"
scalar BusLAN.host[9].pingApp[0] "Pings sent" 372
scalar BusLAN.host[9].pingApp[0] "ping loss rate (%)" 0
scalar BusLAN.host[9].pingApp[0] "ping out-of-order rate (%)" 0
scalar BusLAN.host[9].pingApp[0] pingRxSeq:count 279
attr interpolationmode none
attr title "ping rx seq, count"
scalar BusLAN.host[9].pingApp[0] pingTxSeq:count 279
attr interpolationmode none
attr title "ping tx seq, count"
scalar BusLAN.host[9].pingApp[0] numOutOfOrderArrivals:last nan
attr interpolationmode none
attr title "ping out-of-order arrivals, last"
scalar BusLAN.host[9].pingApp[0] numLost:last nan
attr interpolationmode none
attr title "pings lost, last"
scalar BusLAN.host[9].pingApp[0] rtt:mean 0.003738742166881
attr interpolationmode none
attr title "ping round-trip time, mean"
attr unit s
scalar BusLAN.host[9].pingApp[1] "Pings sent" 374
scalar BusLAN.host[9].pingApp[1] "ping loss rate (%)" 0
scalar BusLAN.host[9].pingApp[1] "ping out-of-order rate (%)" 0
scalar BusLAN.host[9].pingApp[1] pingRxSeq:count 283
attr interpolationmode none
attr title "ping rx seq, count"
scalar BusLAN.host[9].pingApp[1] pingTxSeq:count 283
attr interpolationmode none
attr title "ping tx seq, count"
scalar BusLAN.host[9].pingApp[1] numOutOfOrderArrivals:last nan
attr interpolationmode none
attr title "ping out-of-order arrivals, last"
scalar BusLAN.host[9].pingApp[1] numLost:last nan
attr interpolationmode none
attr title "pings lost, last"
scalar BusLAN.host[9].pingApp[1] rtt:mean 0.0023603300745397
attr interpolationmode none
attr title "ping round-trip time, mean"
attr unit s
scalar BusLAN.host[9].pingApp[2] "Pings sent" 387
scalar BusLAN.host[9].pingApp[2] "ping loss rate (%)" 0
scalar BusLAN.host[9].pingApp[2] "ping out-of-order rate (%)" 0.51679586563307
scalar BusLAN.host[9].pingApp[2] pingRxSeq:count 295
attr interpolationmode none
attr title "ping rx seq, count"
scalar BusLAN.host[9].pingApp[2] pingTxSeq:count 295
attr interpolationmode none
attr title "ping tx seq, count"
scalar BusLAN.host[9].pingApp[2] numOutOfOrderArrivals:last 2
attr interpolationmode none
attr title "ping out-of-order arrivals, last"
scalar BusLAN.host[9].pingApp[2] numLost:last 0
attr interpolationmode none
attr title "pings lost, last"
scalar BusLAN.host[9].pingApp[2] rtt:mean 0.0027708901943511
attr interpolationmode none
attr title "ping round-trip time, mean"
attr unit s
scalar BusLAN.host[9].pingApp[3] "Pings sent" 401
scalar BusLAN.host[9].pingApp[3] "ping loss rate (%)" 0.24937655860349
scalar BusLAN.host[9].pingApp[3] "ping out-of-order rate (%)" 0.24937655860349
scalar BusLAN.host[9].pingApp[3] pingRxSeq:count 302
attr interpolationmode none
attr title "ping rx seq, count"
scalar BusLAN.host[9].pingApp[3] pingTxSeq:count 303
attr interpolationmode none
attr title "ping tx seq, count"
scalar BusLAN.host[9].pingApp[3] numOutOfOrderArrivals:last 1
attr interpolationmode none
attr title "ping out-of-order arrivals, last"
scalar BusLAN.host[9].pingApp[3] numLost:last 1
attr interpolationmode none
attr title "pings lost, last"
scalar BusLAN.host[9].pingApp[3] rtt:mean 0.0050616904399044
attr interpolationmode none
attr title "ping round-trip time, mean"
attr unit s
scalar BusLAN.host[9].pingApp[4] "Pings sent" 390
scalar BusLAN.host[9].pingApp[4] "ping loss rate (%)" 0
scalar BusLAN.host[9].pingApp[4] "ping out-of-order rate (%)" 1.025641025641
scalar BusLAN.host[9].pingApp[4] pingRxSeq:count 301
attr interpolationmode none
attr title "ping rx seq, count"
scalar BusLAN.host[9].pingApp[4] pingTxSeq:count 301
attr interpolationmode none
attr title "ping tx seq, count"
scalar BusLAN.host[9].pingApp[4] numOutOfOrderArrivals:last 4
attr interpolationmode none
attr title "ping out-of-order arrivals, last"
scalar BusLAN.host[9].pingApp[4] numLost:last 0
attr interpolationmode none
attr title "pings lost, last"
scalar BusLAN.host[9].pingApp[4] rtt:mean 0.0040558722551795
attr interpolationmode none
attr title "ping round-trip time, mean"
attr unit s
scalar BusLAN.host[9].pingApp[5] "Pings sent" 388
scalar BusLAN.host[9].pingApp[5] "ping loss rate (%)" 0.25773195876289
scalar BusLAN.host[9].pingApp[5] "ping out-of-order rate (%)" 0
scalar BusLAN.host[9].pingApp[5] pingRxSeq:count 291
attr interpolationmode none
attr title "ping rx seq, count"
scalar BusLAN.host[9].pingApp[5] pingTxSeq:count 292
attr interpolationmode none
attr title "ping tx seq, count"
scalar BusLAN.host[9].pingApp[5] numOutOfOrderArrivals:last nan
attr interpolationmode none
attr title "ping out-of-order arrivals, last"
scalar BusLAN.host[9].pingApp[5] numLost:last 1
attr interpolationmode none
attr title "pings lost, last"
scalar BusLAN.host[9].pingApp[5] rtt:mean 0.0022562541299847
attr interpolationmode none
attr title "ping round-trip time, mean"
attr unit s
scalar BusLAN.host[9].pingApp[6] "Pings sent" 375
scalar BusLAN.host[9].pingApp[6] "ping loss rate (%)" 0
scalar BusLAN.host[9].pingApp[6] "ping out-of-order rate (%)" 0.53333333333333
scalar BusLAN.host[9].pingApp[6] pingRxSeq:count 286
attr interpolationmode none
attr title "ping rx seq, count"
scalar BusLAN.host[9].pingApp[6] pingTxSeq:count 286
attr interpolationmode none
attr title "ping tx seq, count"
scalar BusLAN.host[9].pingApp[6] numOutOfOrderArrivals:last 2
attr interpolationmode none
attr title "ping out-of-order arrivals, last"
scalar BusLAN.host[9].pingApp[6] numLost:last 0
attr interpolationmode none
attr title "pings lost, last"
scalar BusLAN.host[9].pingApp[6] rtt:mean 0.0025284472652948
attr interpolationmode none
attr title "ping round-trip time, mean"
attr unit s
scalar BusLAN.host[9].pingApp[7] "Pings sent" 404
scalar BusLAN.host[9].pingApp[7] "ping loss rate (%)" 0.4950495049505
scalar BusLAN.host[9].pingApp[7] "ping out-of-order rate (%)" 0.24752475247525
scalar BusLAN.host[9].pingApp[7] pingRxSeq:count 305
attr interpolationmode none
attr title "ping rx seq, count"
scalar BusLAN.host[9].pingApp[7] pingTxSeq:count 306
attr interpolationmode none
attr title "ping tx seq, count"
scalar BusLAN.host[9].pingApp[7] numOutOfOrderArrivals:last 1
attr interpolationmode none
attr title "ping out-of-order arrivals, last"
scalar BusLAN.host[9].pingApp[7] numLost:last 1
attr interpolationmode none
attr title "pings lost, last"
scalar BusLAN.host[9].pingApp[7] rtt:mean 0.0021017934711812
attr interpolationmode none
attr title "ping round-trip time, mean"
attr unit s
scalar BusLAN.host[9].pingApp[8] "Pings sent" 396
scalar BusLAN.host[9].pingApp[8] "ping loss rate (%)" 0
scalar BusLAN.host[9].pingApp[8] "ping out-of-order rate (%)" 0
scalar BusLAN.host[9].pingApp[8] pingRxSeq:count 289
attr interpolationmode none
attr title "ping rx seq, count"
scalar BusLAN.host[9].pingApp[8] pingTxSeq:count 289
attr interpolationmode none
attr title "ping tx seq, count"
scalar BusLAN.host[9].pingApp[8] numOutOfOrderArrivals:last nan
attr interpolationmode none
attr title "ping out-of-order arrivals, last"
scalar BusLAN.host[9].pingApp[8] numLost:last nan
attr interpolationmode none
attr title "pings lost, last"
scalar BusLAN.host[9].pingApp[8] rtt:mean 0.0035127279392069
attr interpolationmode none
attr title "ping round-trip time, mean"
attr unit s
scalar BusLAN.host[9].pingApp[9] "Pings sent" 384
scalar BusLAN.host[9].pingApp[9] "ping loss rate (%)" 0.26041666666667
scalar BusLAN.host[9].pingApp[9] "ping out-of-order rate (%)" 0
scalar BusLAN.host[9].pingApp[9] pingRxSeq:count 292
attr interpolationmode none
attr title "ping rx seq, count"
scalar BusLAN.host[9].pingApp[9] pingTxSeq:count 291
attr interpolationmode none
attr title "ping tx seq, count"
scalar BusLAN.host[9].pingApp[9] numOutOfOrderArrivals:last nan
attr interpolationmode none
attr title "ping out-of-order arrivals, last"
scalar BusLAN.host[9].pingApp[9] numLost:last nan
attr interpolationmode none
attr title "pings lost, last"
scalar BusLAN.host[9].pingApp[9] rtt:mean 0.0030765750997293
attr interpolationmode none
attr title "ping round-trip time, mean"
attr unit s
scalar BusLAN.host[9].pingApp[10] "Pings sent" 395
scalar BusLAN.host[9].pingApp[10] "ping loss rate (%)" 0
scalar BusLAN.host[9].pingApp[10] "ping out-of-order rate (%)" 0
scalar BusLAN.host[9].pingApp[10] pingRxSeq:count 296
attr interpolationmode none
attr title "ping rx seq, count"
scalar BusLAN.host[9].pingApp[10] pingTxSeq:count 296
attr interpolationmode none
attr title "ping tx seq, count"
scalar BusLAN.host[9].pingApp[10] numOutOfOrderArrivals:last nan
attr interpolationmode none
attr title "ping out-of-order arrivals, last"
scalar BusLAN.host[9].pingApp[10] numLost:last nan
attr interpolationmode none
attr title "pings lost, last"
scalar BusLAN.host[9].pingApp[10] rtt:mean 0.0023846038660148
attr interpolationmode none
attr title "ping round-trip time, mean"
attr unit s
scalar BusLAN.host[9].pingApp[11] "Pings sent" 389
scalar BusLAN.host[9].pingApp[11] "ping loss rate (%)" 0
scalar BusLAN.host[9].pingApp[11] "ping out-of-order rate (%)" 0
scalar BusLAN.host[9].pingApp[11] pingRxSeq:count 298
attr interpolationmode none
attr title "ping rx seq, count"
scalar BusLAN.host[9].pingApp[11] pingTxSeq:count 298
attr interpolationmode none
attr title "ping tx seq, count"
scalar BusLAN.host[9].pingApp[11] numOutOfOrderArrivals:last nan
attr interpolationmode none
attr title "ping out-of-order arrivals, last"
scalar BusLAN.host[9].pingApp[11] numLost:last nan
attr interpolationmode none
attr title "pings lost, last"
scalar BusLAN.host[9].pingApp[11] rtt:mean 0.0042693269705977
attr interpolationmode none
attr title "ping round-trip time, mean"
attr unit s
scalar BusLAN.host[9].pingApp[12] "Pings sent" 384
scalar BusLAN.host[9].pingApp[12] "ping loss rate (%)" 0
scalar BusLAN.host[9].pingApp[12] "ping out-of-order rate (%)" 0
scalar BusLAN.host[9].pingApp[12] pingRxSeq:count 291
attr interpolationmode none
attr title "ping rx seq, count"
scalar BusLAN.host[9].pingApp[12] pingTxSeq:count 291
attr interpolationmode none
attr title "ping tx seq, count"
scalar BusLAN.host[9].pingApp[12] numOutOfOrderArrivals:last nan
attr interpolationmode none
attr title "ping out-of-order arrivals, last"
scalar BusLAN.host[9].pingApp[12] numLost:last nan
attr interpolationmode none
attr title "pings lost, last"
scalar BusLAN.host[9].pingApp[12] rtt:mean 0.0025356487738759
attr interpolationmode none
attr title "ping round-trip time, mean"
attr unit s
scalar BusLAN.host[9].pingApp[13] "Pings sent" 387
scalar BusLAN.host[9].pingApp[13] "ping loss rate (%)" 0
scalar BusLAN.host[9].pingApp[13] "ping out-of-order rate (%)" 0
scalar BusLAN.host[9].pingApp[13] pingRxSeq:count 293
attr interpolationmode none
attr title "ping rx seq, count"
scalar BusLAN.host[9].pingApp[13] pingTxSeq:count 293
attr interpolationmode none
attr title "ping tx seq, count"
scalar BusLAN.host[9].pingApp[13] numOutOfOrderArrivals:last nan
attr interpolationmode none
attr title "ping out-of-order arrivals, last"
scalar BusLAN.host[9].pingApp[13] numLost:last nan
attr interpolationmode none
attr title "pings lost, last"
scalar BusLAN.host[9].pingApp[13] rtt:mean 0.0033142679912269
attr interpolationmode none
attr title "ping round-trip time, mean"
attr unit s
scalar BusLAN.host[9].pingApp[14] "Pings sent" 379
scalar BusLAN.host[9].pingApp[14] "ping loss rate (%)" 0
scalar BusLAN.host[9].pingApp[14] "ping out-of-order rate (%)" 0
scalar BusLAN.host[9].pingApp[14] pingRxSeq:count 290
attr interpolationmode none
attr title "ping rx seq, count"
scalar BusLAN.host[9].pingApp[14] pingTxSeq:count 290
attr interpolationmode none
attr title "ping tx seq, count"
scalar BusLAN.host[9].pingApp[14] numOutOfOrderArrivals:last nan
attr interpolationmode none
attr title "ping out-of-order arrivals, last"
scalar BusLAN.host[9].pingApp[14] numLost:last nan
attr interpolationmode none
attr title "pings lost, last"
scalar BusLAN.host[9].pingApp[14] rtt:mean 0.0025829441938321
attr interpolationmode none
attr title "ping round-trip time, mean"
attr unit s
scalar BusLAN.host[9].pingApp[15] "Pings sent" 372
scalar BusLAN.host[9].pingApp[15] "ping loss rate (%)" 0
scalar BusLAN.host[9].pingApp[15] "ping out-of-order rate (%)" 0.26881720430108
scalar BusLAN.host[9].pingApp[15] pingRxSeq:count 285
attr interpolationmode none
attr title "ping rx seq, count"
scalar BusLAN.host[9].pingApp[15] pingTxSeq:count 285
attr interpolationmode none
attr title "ping tx seq, count"
scalar BusLAN.host[9].pingApp[15] numOutOfOrderArrivals:last 1
attr interpolationmode none
attr title "ping out-of-order arrivals, last"
scalar BusLAN.host[9].pingApp[15] numLost:last 0
attr interpolationmode none
attr title "pings lost, last"
scalar BusLAN.host[9].pingApp[15] rtt:mean 0.0032550915782471
attr interpolationmode none
attr title "ping round-trip time, mean"
attr unit s
scalar BusLAN.bus "simulated time" 20
scalar BusLAN.bus "messages handled" 0
scalar BusLAN.bus messages/sec 0

