version 2
run BusLAN10-packetsize-2-20180110-20:26:53-5164
attr configname BusLAN10-packetsize
attr datetime 20180110-20:26:53
attr experiment BusLAN10-packetsize
attr inifile BusLAN.ini
attr iterationvars $pa=126
attr iterationvarsf pa=126-
attr measurement $pa=126
attr network BusLAN
attr processid 5164
attr repetition 0
attr replication #0
attr resultdir results
attr runnumber 2
attr seedset 2
itervar pa 126
param *.numHosts 10
param **.datarate 10Mbps
param **.host[*].pingApp[*].sendInterval "truncnormal(50ms, 25ms)"
param **.host[*].pingApp[*].packetSize "truncnormal(512B, 256B)"
param **.queueType "\"DropTailQueue\""
param **.frameCapacity 10
param **.mtu 1024B
param **.host[*].numPingApps 126
param **.host[*].pingApp[*].typename "\"PingApp\""
param **.host[*].pingApp[*].count 1
param **.host[*].pingApp[*].startTime "truncnormal(200ms, 100ms)"
param **.host[*].pingApp[*].destAddr "\"*\""

scalar BusLAN.host[0].networkLayer.arp sentReply:count 0
attr title "ARP replies sent, count"
scalar BusLAN.host[0].networkLayer.arp sentReq:count 0
attr title "ARP request sent, count"
scalar BusLAN.host[0].networkLayer.arp failedARPResolution:count 0
attr title "ARP failed resolutions, count"
scalar BusLAN.host[0].networkLayer.arp completedARPResolution:count 0
attr title "ARP completed resolutions, count"
scalar BusLAN.host[0].networkLayer.arp initiatedARPResolution:count 0
attr title "ARP initiated resolutions, count"
scalar BusLAN.host[0].lo0.lo droppedPkBitError:count 0
attr interpolationmode none
attr source dropPkBitError
attr title "packets dropped/bit error, count"
scalar BusLAN.host[0].lo0.lo droppedPkBitError:sum(packetBytes) 0
attr interpolationmode none
attr source dropPkBitError
attr title "packets dropped/bit error, sum(packetBytes)"
scalar BusLAN.host[0].lo0.lo rcvdPkFromHL:count 7346
attr interpolationmode none
attr source packetReceivedFromUpper
attr title "packets received from higher layer, count"
scalar BusLAN.host[0].lo0.lo rcvdPkFromHL:sum(packetBytes) 3958472
attr interpolationmode none
attr source packetReceivedFromUpper
attr title "packets received from higher layer, sum(packetBytes)"
scalar BusLAN.host[0].lo0.lo passedUpPk:count 7346
attr interpolationmode none
attr source packetSentToUpper
attr title "packets passed to higher layer, count"
scalar BusLAN.host[0].lo0.lo passedUpPk:sum(packetBytes) 3958472
attr interpolationmode none
attr source packetSentToUpper
attr title "packets passed to higher layer, sum(packetBytes)"
scalar BusLAN.host[0].eth[0].queue.pauseQueue queueLength:max nan
attr interpolationmode sample-hold
attr title "queue length, max"
scalar BusLAN.host[0].eth[0].queue.pauseQueue queueLength:timeavg nan
attr interpolationmode sample-hold
attr title "queue length, timeavg"
statistic BusLAN.host[0].eth[0].queue.pauseQueue queueingTime:histogram
field count 0
field mean nan
field stddev nan
field min nan
field max nan
field sum 0
field sqrsum 0
attr interpolationmode none
attr title "queueing time, histogram"
bin	-inf	0
bin	-0.5	0
bin	-0.46666666666667	0
bin	-0.43333333333333	0
bin	-0.4	0
bin	-0.36666666666667	0
bin	-0.33333333333333	0
bin	-0.3	0
bin	-0.26666666666667	0
bin	-0.23333333333333	0
bin	-0.2	0
bin	-0.16666666666667	0
bin	-0.13333333333333	0
bin	-0.1	0
bin	-0.066666666666667	0
bin	-0.033333333333333	0
bin	0	0
bin	0.033333333333333	0
bin	0.066666666666667	0
bin	0.1	0
bin	0.13333333333333	0
bin	0.16666666666667	0
bin	0.2	0
bin	0.23333333333333	0
bin	0.26666666666667	0
bin	0.3	0
bin	0.33333333333333	0
bin	0.36666666666667	0
bin	0.4	0
bin	0.43333333333333	0
bin	0.46666666666667	0
bin	0.5	0
scalar BusLAN.host[0].eth[0].queue.pauseQueue dropPk:count 0
attr interpolationmode none
attr source dropPkByQueue
attr title "dropped packets, count"
scalar BusLAN.host[0].eth[0].queue.pauseQueue dropPk:sum(packetBytes) 0
attr interpolationmode none
attr source dropPkByQueue
attr title "dropped packets, sum(packetBytes)"
scalar BusLAN.host[0].eth[0].queue.pauseQueue rcvdPk:count 0
attr interpolationmode none
attr title "received packets, count"
scalar BusLAN.host[0].eth[0].queue.pauseQueue rcvdPk:sum(packetBytes) 0
attr interpolationmode none
attr title "received packets, sum(packetBytes)"
scalar BusLAN.host[0].eth[0].queue.dataQueue queueLength:max 10
attr interpolationmode sample-hold
attr title "queue length, max"
scalar BusLAN.host[0].eth[0].queue.dataQueue queueLength:timeavg 9.026544575328
attr interpolationmode sample-hold
attr title "queue length, timeavg"
statistic BusLAN.host[0].eth[0].queue.dataQueue queueingTime:histogram
field count 32099
field mean 0.0042179885216492
field stddev 0.0007251662888219
field min 0.000358524263
field max 0.006436763713
field sum 135.39321355642
field sqrsum 0.58796627225873
attr interpolationmode none
attr title "queueing time, histogram"
bin	-inf	5
bin	0.0009036642335	11
bin	0.0010967588202333	13
bin	0.0012898534069667	18
bin	0.0014829479937	31
bin	0.0016760425804333	63
bin	0.0018691371671667	72
bin	0.0020622317539	108
bin	0.0022553263406333	202
bin	0.0024484209273667	297
bin	0.0026415155141	442
bin	0.0028346101008333	636
bin	0.0030277046875667	976
bin	0.0032207992743	1294
bin	0.0034138938610333	1809
bin	0.0036069884477667	2380
bin	0.0038000830345	2877
bin	0.0039931776212333	3288
bin	0.0041862722079667	3550
bin	0.0043793667947	3538
bin	0.0045724613814333	3217
bin	0.0047655559681667	2649
bin	0.0049586505549	1921
bin	0.0051517451416333	1227
bin	0.0053448397283667	792
bin	0.0055379343151	406
bin	0.0057310289018333	172
bin	0.0059241234885667	75
bin	0.0061172180753	21
bin	0.0063103126620333	9
bin	0.0065034072487667	0
bin	0.0066965018355	0
scalar BusLAN.host[0].eth[0].queue.dataQueue dropPk:count 21326
attr interpolationmode none
attr source dropPkByQueue
attr title "dropped packets, count"
scalar BusLAN.host[0].eth[0].queue.dataQueue dropPk:sum(packetBytes) 11877076
attr interpolationmode none
attr source dropPkByQueue
attr title "dropped packets, sum(packetBytes)"
scalar BusLAN.host[0].eth[0].queue.dataQueue rcvdPk:count 53426
attr interpolationmode none
attr title "received packets, count"
scalar BusLAN.host[0].eth[0].queue.dataQueue rcvdPk:sum(packetBytes) 29985679
attr interpolationmode none
attr title "received packets, sum(packetBytes)"
scalar BusLAN.host[0].eth[0].mac "simulated time" 20
scalar BusLAN.host[0].eth[0].mac full-duplex 1
scalar BusLAN.host[0].eth[0].mac "frames/sec sent" 2136.1
scalar BusLAN.host[0].eth[0].mac "frames/sec rcvd" 2175.85
scalar BusLAN.host[0].eth[0].mac "bits/sec sent" 9642388.4
scalar BusLAN.host[0].eth[0].mac "bits/sec rcvd" 9897493.6
scalar BusLAN.host[0].eth[0].mac "rx channel idle (%)" -776.14818
scalar BusLAN.host[0].eth[0].mac "rx channel utilization (%)" 876.14818
scalar BusLAN.host[0].eth[0].mac rxPkFromHL:count 32099
attr interpolationmode none
attr source rxPkFromHL
attr title "packet bytes from higher layer, count"
scalar BusLAN.host[0].eth[0].mac rxPkFromHL:sum(packetBytes) 18107851
attr interpolationmode none
attr source rxPkFromHL
attr title "packet bytes from higher layer, sum(packetBytes)"
scalar BusLAN.host[0].eth[0].mac rxPausePkUnits:count 0
attr interpolationmode none
attr title "pause units received, count"
scalar BusLAN.host[0].eth[0].mac rxPausePkUnits:sum 0
attr interpolationmode none
attr title "pause units received, sum"
scalar BusLAN.host[0].eth[0].mac txPausePkUnits:count 0
attr interpolationmode none
attr title "pause units sent, count"
scalar BusLAN.host[0].eth[0].mac txPausePkUnits:sum 0
attr interpolationmode none
attr title "pause units sent, sum"
scalar BusLAN.host[0].eth[0].mac txPk:count 32099
attr interpolationmode none
attr source txPk
attr title "packets transmitted, count"
scalar BusLAN.host[0].eth[0].mac txPk:sum(packetBytes) 18107386
attr interpolationmode none
attr source txPk
attr title "packets transmitted, sum(packetBytes)"
scalar BusLAN.host[0].eth[0].mac droppedPkNotForUs:count 254653
attr interpolationmode none
attr source dropPkNotForUs
attr title "packets dropped/not for us, count"
scalar BusLAN.host[0].eth[0].mac droppedPkNotForUs:sum(packetBytes) 144608638
attr interpolationmode none
attr source dropPkNotForUs
attr title "packets dropped/not for us, sum(packetBytes)"
scalar BusLAN.host[0].eth[0].mac droppedPkBitError:count 0
attr interpolationmode none
attr source dropPkBitError
attr title "packets dropped/bit error, count"
scalar BusLAN.host[0].eth[0].mac droppedPkBitError:sum(packetBytes) 0
attr interpolationmode none
attr source dropPkBitError
attr title "packets dropped/bit error, sum(packetBytes)"
scalar BusLAN.host[0].eth[0].mac droppedPkIfaceDown:count 0
attr interpolationmode none
attr source dropPkIfaceDown
attr title "packets dropped/interface down, count"
scalar BusLAN.host[0].eth[0].mac droppedPkIfaceDown:sum(packetBytes) 0
attr interpolationmode none
attr source dropPkIfaceDown
attr title "packets dropped/interface down, sum(packetBytes)"
scalar BusLAN.host[0].eth[0].mac rxPkOk:count 32322
attr interpolationmode none
attr source rxPkOk
attr title "packets received OK, count"
scalar BusLAN.host[0].eth[0].mac rxPkOk:sum(packetBytes) 18401213
attr interpolationmode none
attr source rxPkOk
attr title "packets received OK, sum(packetBytes)"
scalar BusLAN.host[0].eth[0].mac passedUpPk:count 32322
attr interpolationmode none
attr source packetSentToUpper
attr title "packets passed to higher layer, count"
scalar BusLAN.host[0].eth[0].mac passedUpPk:sum(packetBytes) 18401213
attr interpolationmode none
attr source packetSentToUpper
attr title "packets passed to higher layer, sum(packetBytes)"
scalar BusLAN.host[0].eth[0].encap pauseSent:count 0
attr title "pause sent, count"
scalar BusLAN.host[0].eth[0].encap pauseSent:sum 0
attr title "pause sent, sum"
scalar BusLAN.host[0].eth[0].encap decapPk:count 32322
attr interpolationmode none
attr source decapPk
attr title "packets decapsulated, count"
scalar BusLAN.host[0].eth[0].encap decapPk:sum(packetBytes) 17817649
attr interpolationmode none
attr source decapPk
attr title "packets decapsulated, sum(packetBytes)"
scalar BusLAN.host[0].eth[0].encap encapPk:count 53426
attr interpolationmode none
attr source encapPk
attr title "packets encapsulated, count"
scalar BusLAN.host[0].eth[0].encap encapPk:sum(packetBytes) 29016455
attr interpolationmode none
attr source encapPk
attr title "packets encapsulated, sum(packetBytes)"
scalar BusLAN.host[0].pingApp[0] "Pings sent" 390
scalar BusLAN.host[0].pingApp[0] "ping loss rate (%)" 58.205128205128
scalar BusLAN.host[0].pingApp[0] "ping out-of-order rate (%)" 0
scalar BusLAN.host[0].pingApp[0] pingRxSeq:count 119
attr interpolationmode none
attr title "ping rx seq, count"
scalar BusLAN.host[0].pingApp[0] pingTxSeq:count 298
attr interpolationmode none
attr title "ping tx seq, count"
scalar BusLAN.host[0].pingApp[0] numOutOfOrderArrivals:last nan
attr interpolationmode none
attr title "ping out-of-order arrivals, last"
scalar BusLAN.host[0].pingApp[0] numLost:last 226
attr interpolationmode none
attr title "pings lost, last"
scalar BusLAN.host[0].pingApp[0] rtt:mean 0.0097810908002842
attr interpolationmode none
attr title "ping round-trip time, mean"
attr unit s
scalar BusLAN.host[0].pingApp[1] "Pings sent" 384
scalar BusLAN.host[0].pingApp[1] "ping loss rate (%)" 55.208333333333
scalar BusLAN.host[0].pingApp[1] "ping out-of-order rate (%)" 0
scalar BusLAN.host[0].pingApp[1] pingRxSeq:count 125
attr interpolationmode none
attr title "ping rx seq, count"
scalar BusLAN.host[0].pingApp[1] pingTxSeq:count 286
attr interpolationmode none
attr title "ping tx seq, count"
scalar BusLAN.host[0].pingApp[1] numOutOfOrderArrivals:last nan
attr interpolationmode none
attr title "ping out-of-order arrivals, last"
scalar BusLAN.host[0].pingApp[1] numLost:last 210
attr interpolationmode none
attr title "pings lost, last"
scalar BusLAN.host[0].pingApp[1] rtt:mean 0.0098564949444222
attr interpolationmode none
attr title "ping round-trip time, mean"
attr unit s
scalar BusLAN.host[0].pingApp[2] "Pings sent" 387
scalar BusLAN.host[0].pingApp[2] "ping loss rate (%)" 59.431524547804
scalar BusLAN.host[0].pingApp[2] "ping out-of-order rate (%)" 0
scalar BusLAN.host[0].pingApp[2] pingRxSeq:count 115
attr interpolationmode none
attr title "ping rx seq, count"
scalar BusLAN.host[0].pingApp[2] pingTxSeq:count 283
attr interpolationmode none
attr title "ping tx seq, count"
scalar BusLAN.host[0].pingApp[2] numOutOfOrderArrivals:last nan
attr interpolationmode none
attr title "ping out-of-order arrivals, last"
scalar BusLAN.host[0].pingApp[2] numLost:last 227
attr interpolationmode none
attr title "pings lost, last"
scalar BusLAN.host[0].pingApp[2] rtt:mean 0.0090587285375
attr interpolationmode none
attr title "ping round-trip time, mean"
attr unit s
scalar BusLAN.host[0].pingApp[3] "Pings sent" 372
scalar BusLAN.host[0].pingApp[3] "ping loss rate (%)" 61.559139784946
scalar BusLAN.host[0].pingApp[3] "ping out-of-order rate (%)" 0
scalar BusLAN.host[0].pingApp[3] pingRxSeq:count 111
attr interpolationmode none
attr title "ping rx seq, count"
scalar BusLAN.host[0].pingApp[3] pingTxSeq:count 285
attr interpolationmode none
attr title "ping tx seq, count"
scalar BusLAN.host[0].pingApp[3] numOutOfOrderArrivals:last nan
attr interpolationmode none
attr title "ping out-of-order arrivals, last"
scalar BusLAN.host[0].pingApp[3] numLost:last 224
attr interpolationmode none
attr title "pings lost, last"
scalar BusLAN.host[0].pingApp[3] rtt:mean 0.0092965109326067
attr interpolationmode none
attr title "ping round-trip time, mean"
attr unit s
scalar BusLAN.host[0].pingApp[4] "Pings sent" 390
scalar BusLAN.host[0].pingApp[4] "ping loss rate (%)" 58.205128205128
scalar BusLAN.host[0].pingApp[4] "ping out-of-order rate (%)" 0.51282051282051
scalar BusLAN.host[0].pingApp[4] pingRxSeq:count 118
attr interpolationmode none
attr title "ping rx seq, count"
scalar BusLAN.host[0].pingApp[4] pingTxSeq:count 293
attr interpolationmode none
attr title "ping tx seq, count"
scalar BusLAN.host[0].pingApp[4] numOutOfOrderArrivals:last 2
attr interpolationmode none
attr title "ping out-of-order arrivals, last"
scalar BusLAN.host[0].pingApp[4] numLost:last 226
attr interpolationmode none
attr title "pings lost, last"
scalar BusLAN.host[0].pingApp[4] rtt:mean 0.0089566773314483
attr interpolationmode none
attr title "ping round-trip time, mean"
attr unit s
scalar BusLAN.host[0].pingApp[5] "Pings sent" 401
scalar BusLAN.host[0].pingApp[5] "ping loss rate (%)" 62.344139650873
scalar BusLAN.host[0].pingApp[5] "ping out-of-order rate (%)" 0
scalar BusLAN.host[0].pingApp[5] pingRxSeq:count 116
attr interpolationmode none
attr title "ping rx seq, count"
scalar BusLAN.host[0].pingApp[5] pingTxSeq:count 306
attr interpolationmode none
attr title "ping tx seq, count"
scalar BusLAN.host[0].pingApp[5] numOutOfOrderArrivals:last nan
attr interpolationmode none
attr title "ping out-of-order arrivals, last"
scalar BusLAN.host[0].pingApp[5] numLost:last 249
attr interpolationmode none
attr title "pings lost, last"
scalar BusLAN.host[0].pingApp[5] rtt:mean 0.0097907054746316
attr interpolationmode none
attr title "ping round-trip time, mean"
attr unit s
scalar BusLAN.host[0].pingApp[6] "Pings sent" 383
scalar BusLAN.host[0].pingApp[6] "ping loss rate (%)" 57.963446475196
scalar BusLAN.host[0].pingApp[6] "ping out-of-order rate (%)" 0
scalar BusLAN.host[0].pingApp[6] pingRxSeq:count 125
attr interpolationmode none
attr title "ping rx seq, count"
scalar BusLAN.host[0].pingApp[6] pingTxSeq:count 298
attr interpolationmode none
attr title "ping tx seq, count"
scalar BusLAN.host[0].pingApp[6] numOutOfOrderArrivals:last nan
attr interpolationmode none
attr title "ping out-of-order arrivals, last"
scalar BusLAN.host[0].pingApp[6] numLost:last 221
attr interpolationmode none
attr title "pings lost, last"
scalar BusLAN.host[0].pingApp[6] rtt:mean 0.0094685877173878
attr interpolationmode none
attr title "ping round-trip time, mean"
attr unit s
scalar BusLAN.host[0].pingApp[7] "Pings sent" 405
scalar BusLAN.host[0].pingApp[7] "ping loss rate (%)" 51.358024691358
scalar BusLAN.host[0].pingApp[7] "ping out-of-order rate (%)" 0.24691358024691
scalar BusLAN.host[0].pingApp[7] pingRxSeq:count 147
attr interpolationmode none
attr title "ping rx seq, count"
scalar BusLAN.host[0].pingApp[7] pingTxSeq:count 301
attr interpolationmode none
attr title "ping tx seq, count"
scalar BusLAN.host[0].pingApp[7] numOutOfOrderArrivals:last nan
attr interpolationmode none
attr title "ping out-of-order arrivals, last"
scalar BusLAN.host[0].pingApp[7] numLost:last 206
attr interpolationmode none
attr title "pings lost, last"
scalar BusLAN.host[0].pingApp[7] rtt:mean 0.0093450005686204
attr interpolationmode none
attr title "ping round-trip time, mean"
attr unit s
scalar BusLAN.host[0].pingApp[8] "Pings sent" 393
scalar BusLAN.host[0].pingApp[8] "ping loss rate (%)" 58.778625954198
scalar BusLAN.host[0].pingApp[8] "ping out-of-order rate (%)" 0.25445292620865
scalar BusLAN.host[0].pingApp[8] pingRxSeq:count 128
attr interpolationmode none
attr title "ping rx seq, count"
scalar BusLAN.host[0].pingApp[8] pingTxSeq:count 299
attr interpolationmode none
attr title "ping tx seq, count"
scalar BusLAN.host[0].pingApp[8] numOutOfOrderArrivals:last 1
attr interpolationmode none
attr title "ping out-of-order arrivals, last"
scalar BusLAN.host[0].pingApp[8] numLost:last 231
attr interpolationmode none
attr title "pings lost, last"
scalar BusLAN.host[0].pingApp[8] rtt:mean 0.0085951511658667
attr interpolationmode none
attr title "ping round-trip time, mean"
attr unit s
scalar BusLAN.host[0].pingApp[9] "Pings sent" 389
scalar BusLAN.host[0].pingApp[9] "ping loss rate (%)" 56.81233933162
scalar BusLAN.host[0].pingApp[9] "ping out-of-order rate (%)" 0
scalar BusLAN.host[0].pingApp[9] pingRxSeq:count 120
attr interpolationmode none
attr title "ping rx seq, count"
scalar BusLAN.host[0].pingApp[9] pingTxSeq:count 300
attr interpolationmode none
attr title "ping tx seq, count"
scalar BusLAN.host[0].pingApp[9] numOutOfOrderArrivals:last nan
attr interpolationmode none
attr title "ping out-of-order arrivals, last"
scalar BusLAN.host[0].pingApp[9] numLost:last 218
attr interpolationmode none
attr title "pings lost, last"
scalar BusLAN.host[0].pingApp[9] rtt:mean 0.0097876972948542
attr interpolationmode none
attr title "ping round-trip time, mean"
attr unit s
scalar BusLAN.host[0].pingApp[10] "Pings sent" 390
scalar BusLAN.host[0].pingApp[10] "ping loss rate (%)" 55.641025641026
scalar BusLAN.host[0].pingApp[10] "ping out-of-order rate (%)" 0.25641025641026
scalar BusLAN.host[0].pingApp[10] pingRxSeq:count 130
attr interpolationmode none
attr title "ping rx seq, count"
scalar BusLAN.host[0].pingApp[10] pingTxSeq:count 295
attr interpolationmode none
attr title "ping tx seq, count"
scalar BusLAN.host[0].pingApp[10] numOutOfOrderArrivals:last 1
attr interpolationmode none
attr title "ping out-of-order arrivals, last"
scalar BusLAN.host[0].pingApp[10] numLost:last 216
attr interpolationmode none
attr title "pings lost, last"
scalar BusLAN.host[0].pingApp[10] rtt:mean 0.0093286788257019
attr interpolationmode none
attr title "ping round-trip time, mean"
attr unit s
scalar BusLAN.host[0].pingApp[11] "Pings sent" 379
scalar BusLAN.host[0].pingApp[11] "ping loss rate (%)" 56.46437994723
scalar BusLAN.host[0].pingApp[11] "ping out-of-order rate (%)" 0
scalar BusLAN.host[0].pingApp[11] pingRxSeq:count 123
attr interpolationmode none
attr title "ping rx seq, count"
scalar BusLAN.host[0].pingApp[11] pingTxSeq:count 287
attr interpolationmode none
attr title "ping tx seq, count"
scalar BusLAN.host[0].pingApp[11] numOutOfOrderArrivals:last nan
attr interpolationmode none
attr title "ping out-of-order arrivals, last"
scalar BusLAN.host[0].pingApp[11] numLost:last 214
attr interpolationmode none
attr title "pings lost, last"
scalar BusLAN.host[0].pingApp[11] rtt:mean 0.0098155169007216
attr interpolationmode none
attr title "ping round-trip time, mean"
attr unit s
scalar BusLAN.host[0].pingApp[12] "Pings sent" 372
scalar BusLAN.host[0].pingApp[12] "ping loss rate (%)" 60.752688172043
scalar BusLAN.host[0].pingApp[12] "ping out-of-order rate (%)" 0
scalar BusLAN.host[0].pingApp[12] pingRxSeq:count 101
attr interpolationmode none
attr title "ping rx seq, count"
scalar BusLAN.host[0].pingApp[12] pingTxSeq:count 276
attr interpolationmode none
attr title "ping tx seq, count"
scalar BusLAN.host[0].pingApp[12] numOutOfOrderArrivals:last nan
attr interpolationmode none
attr title "ping out-of-order arrivals, last"
scalar BusLAN.host[0].pingApp[12] numLost:last 222
attr interpolationmode none
attr title "pings lost, last"
scalar BusLAN.host[0].pingApp[12] rtt:mean 0.0090169945272
attr interpolationmode none
attr title "ping round-trip time, mean"
attr unit s
scalar BusLAN.host[0].pingApp[13] "Pings sent" 387
scalar BusLAN.host[0].pingApp[13] "ping loss rate (%)" 60.723514211886
scalar BusLAN.host[0].pingApp[13] "ping out-of-order rate (%)" 0.25839793281654
scalar BusLAN.host[0].pingApp[13] pingRxSeq:count 107
attr interpolationmode none
attr title "ping rx seq, count"
scalar BusLAN.host[0].pingApp[13] pingTxSeq:count 294
attr interpolationmode none
attr title "ping tx seq, count"
scalar BusLAN.host[0].pingApp[13] numOutOfOrderArrivals:last 1
attr interpolationmode none
attr title "ping out-of-order arrivals, last"
scalar BusLAN.host[0].pingApp[13] numLost:last 234
attr interpolationmode none
attr title "pings lost, last"
scalar BusLAN.host[0].pingApp[13] rtt:mean 0.0093397490991264
attr interpolationmode none
attr title "ping round-trip time, mean"
attr unit s
scalar BusLAN.host[0].pingApp[14] "Pings sent" 378
scalar BusLAN.host[0].pingApp[14] "ping loss rate (%)" 56.878306878307
scalar BusLAN.host[0].pingApp[14] "ping out-of-order rate (%)" 0.52910052910053
scalar BusLAN.host[0].pingApp[14] pingRxSeq:count 121
attr interpolationmode none
attr title "ping rx seq, count"
scalar BusLAN.host[0].pingApp[14] pingTxSeq:count 284
attr interpolationmode none
attr title "ping tx seq, count"
scalar BusLAN.host[0].pingApp[14] numOutOfOrderArrivals:last 2
attr interpolationmode none
attr title "ping out-of-order arrivals, last"
scalar BusLAN.host[0].pingApp[14] numLost:last 213
attr interpolationmode none
attr title "pings lost, last"
scalar BusLAN.host[0].pingApp[14] rtt:mean 0.0091904719260313
attr interpolationmode none
attr title "ping round-trip time, mean"
attr unit s
scalar BusLAN.host[0].pingApp[15] "Pings sent" 387
scalar BusLAN.host[0].pingApp[15] "ping loss rate (%)" 60.46511627907
scalar BusLAN.host[0].pingApp[15] "ping out-of-order rate (%)" 0
scalar BusLAN.host[0].pingApp[15] pingRxSeq:count 114
attr interpolationmode none
attr title "ping rx seq, count"
scalar BusLAN.host[0].pingApp[15] pingTxSeq:count 295
attr interpolationmode none
attr title "ping tx seq, count"
scalar BusLAN.host[0].pingApp[15] numOutOfOrderArrivals:last nan
attr interpolationmode none
attr title "ping out-of-order arrivals, last"
scalar BusLAN.host[0].pingApp[15] numLost:last 234
attr interpolationmode none
attr title "pings lost, last"
scalar BusLAN.host[0].pingApp[15] rtt:mean 0.009097415807236
attr interpolationmode none
attr title "ping round-trip time, mean"
attr unit s
scalar BusLAN.host[0].pingApp[16] "Pings sent" 387
scalar BusLAN.host[0].pingApp[16] "ping loss rate (%)" 56.589147286822
scalar BusLAN.host[0].pingApp[16] "ping out-of-order rate (%)" 0.51679586563307
scalar BusLAN.host[0].pingApp[16] pingRxSeq:count 121
attr interpolationmode none
attr title "ping rx seq, count"
scalar BusLAN.host[0].pingApp[16] pingTxSeq:count 291
attr interpolationmode none
attr title "ping tx seq, count"
scalar BusLAN.host[0].pingApp[16] numOutOfOrderArrivals:last 2
attr interpolationmode none
attr title "ping out-of-order arrivals, last"
scalar BusLAN.host[0].pingApp[16] numLost:last 218
attr interpolationmode none
attr title "pings lost, last"
scalar BusLAN.host[0].pingApp[16] rtt:mean 0.0090347154743218
attr interpolationmode none
attr title "ping round-trip time, mean"
attr unit s
scalar BusLAN.host[0].pingApp[17] "Pings sent" 401
scalar BusLAN.host[0].pingApp[17] "ping loss rate (%)" 55.361596009975
scalar BusLAN.host[0].pingApp[17] "ping out-of-order rate (%)" 0.49875311720698
scalar BusLAN.host[0].pingApp[17] pingRxSeq:count 133
attr interpolationmode none
attr title "ping rx seq, count"
scalar BusLAN.host[0].pingApp[17] pingTxSeq:count 295
attr interpolationmode none
attr title "ping tx seq, count"
scalar BusLAN.host[0].pingApp[17] numOutOfOrderArrivals:last 2
attr interpolationmode none
attr title "ping out-of-order arrivals, last"
scalar BusLAN.host[0].pingApp[17] numLost:last 219
attr interpolationmode none
attr title "pings lost, last"
scalar BusLAN.host[0].pingApp[17] rtt:mean 0.00919054672351
attr interpolationmode none
attr title "ping round-trip time, mean"
attr unit s
scalar BusLAN.host[0].pingApp[18] "Pings sent" 383
scalar BusLAN.host[0].pingApp[18] "ping loss rate (%)" 59.268929503916
scalar BusLAN.host[0].pingApp[18] "ping out-of-order rate (%)" 0.78328981723238
scalar BusLAN.host[0].pingApp[18] pingRxSeq:count 116
attr interpolationmode none
attr title "ping rx seq, count"
scalar BusLAN.host[0].pingApp[18] pingTxSeq:count 293
attr interpolationmode none
attr title "ping tx seq, count"
scalar BusLAN.host[0].pingApp[18] numOutOfOrderArrivals:last 3
attr interpolationmode none
attr title "ping out-of-order arrivals, last"
scalar BusLAN.host[0].pingApp[18] numLost:last 223
attr interpolationmode none
attr title "pings lost, last"
scalar BusLAN.host[0].pingApp[18] rtt:mean 0.01020256202594
attr interpolationmode none
attr title "ping round-trip time, mean"
attr unit s
scalar BusLAN.host[0].pingApp[19] "Pings sent" 391
scalar BusLAN.host[0].pingApp[19] "ping loss rate (%)" 61.381074168798
scalar BusLAN.host[0].pingApp[19] "ping out-of-order rate (%)" 0
scalar BusLAN.host[0].pingApp[19] pingRxSeq:count 124
attr interpolationmode none
attr title "ping rx seq, count"
scalar BusLAN.host[0].pingApp[19] pingTxSeq:count 303
attr interpolationmode none
attr title "ping tx seq, count"
scalar BusLAN.host[0].pingApp[19] numOutOfOrderArrivals:last nan
attr interpolationmode none
attr title "ping out-of-order arrivals, last"
scalar BusLAN.host[0].pingApp[19] numLost:last 240
attr interpolationmode none
attr title "pings lost, last"
scalar BusLAN.host[0].pingApp[19] rtt:mean 0.0094811891351053
attr interpolationmode none
attr title "ping round-trip time, mean"
attr unit s
scalar BusLAN.host[0].pingApp[20] "Pings sent" 384
scalar BusLAN.host[0].pingApp[20] "ping loss rate (%)" 59.114583333333
scalar BusLAN.host[0].pingApp[20] "ping out-of-order rate (%)" 0.26041666666667
scalar BusLAN.host[0].pingApp[20] pingRxSeq:count 115
attr interpolationmode none
attr title "ping rx seq, count"
scalar BusLAN.host[0].pingApp[20] pingTxSeq:count 292
attr interpolationmode none
attr title "ping tx seq, count"
scalar BusLAN.host[0].pingApp[20] numOutOfOrderArrivals:last 1
attr interpolationmode none
attr title "ping out-of-order arrivals, last"
scalar BusLAN.host[0].pingApp[20] numLost:last 225
attr interpolationmode none
attr title "pings lost, last"
scalar BusLAN.host[0].pingApp[20] rtt:mean 0.0093665352287176
attr interpolationmode none
attr title "ping round-trip time, mean"
attr unit s
scalar BusLAN.host[0].pingApp[21] "Pings sent" 379
scalar BusLAN.host[0].pingApp[21] "ping loss rate (%)" 59.630606860158
scalar BusLAN.host[0].pingApp[21] "ping out-of-order rate (%)" 0.26385224274406
scalar BusLAN.host[0].pingApp[21] pingRxSeq:count 121
attr interpolationmode none
attr title "ping rx seq, count"
scalar BusLAN.host[0].pingApp[21] pingTxSeq:count 295
attr interpolationmode none
attr title "ping tx seq, count"
scalar BusLAN.host[0].pingApp[21] numOutOfOrderArrivals:last 1
attr interpolationmode none
attr title "ping out-of-order arrivals, last"
scalar BusLAN.host[0].pingApp[21] numLost:last 226
attr interpolationmode none
attr title "pings lost, last"
scalar BusLAN.host[0].pingApp[21] rtt:mean 0.0092971811368261
attr interpolationmode none
attr title "ping round-trip time, mean"
attr unit s
scalar BusLAN.host[0].pingApp[22] "Pings sent" 380
scalar BusLAN.host[0].pingApp[22] "ping loss rate (%)" 54.473684210526
scalar BusLAN.host[0].pingApp[22] "ping out-of-order rate (%)" 0
scalar BusLAN.host[0].pingApp[22] pingRxSeq:count 128
attr interpolationmode none
attr title "ping rx seq, count"
scalar BusLAN.host[0].pingApp[22] pingTxSeq:count 282
attr interpolationmode none
attr title "ping tx seq, count"
scalar BusLAN.host[0].pingApp[22] numOutOfOrderArrivals:last nan
attr interpolationmode none
attr title "ping out-of-order arrivals, last"
scalar BusLAN.host[0].pingApp[22] numLost:last 207
attr interpolationmode none
attr title "pings lost, last"
scalar BusLAN.host[0].pingApp[22] rtt:mean 0.00946877824175
attr interpolationmode none
attr title "ping round-trip time, mean"
attr unit s
scalar BusLAN.host[0].pingApp[23] "Pings sent" 382
scalar BusLAN.host[0].pingApp[23] "ping loss rate (%)" 61.780104712042
scalar BusLAN.host[0].pingApp[23] "ping out-of-order rate (%)" 0
scalar BusLAN.host[0].pingApp[23] pingRxSeq:count 100
attr interpolationmode none
attr title "ping rx seq, count"
scalar BusLAN.host[0].pingApp[23] pingTxSeq:count 290
attr interpolationmode none
attr title "ping tx seq, count"
scalar BusLAN.host[0].pingApp[23] numOutOfOrderArrivals:last nan
attr interpolationmode none
attr title "ping out-of-order arrivals, last"
scalar BusLAN.host[0].pingApp[23] numLost:last 236
attr interpolationmode none
attr title "pings lost, last"
scalar BusLAN.host[0].pingApp[23] rtt:mean 0.0086316000000411
attr interpolationmode none
attr title "ping round-trip time, mean"
attr unit s
scalar BusLAN.host[0].pingApp[24] "Pings sent" 378
scalar BusLAN.host[0].pingApp[24] "ping loss rate (%)" 57.407407407407
scalar BusLAN.host[0].pingApp[24] "ping out-of-order rate (%)" 0
scalar BusLAN.host[0].pingApp[24] pingRxSeq:count 118
attr interpolationmode none
attr title "ping rx seq, count"
scalar BusLAN.host[0].pingApp[24] pingTxSeq:count 285
attr interpolationmode none
attr title "ping tx seq, count"
scalar BusLAN.host[0].pingApp[24] numOutOfOrderArrivals:last nan
attr interpolationmode none
attr title "ping out-of-order arrivals, last"
scalar BusLAN.host[0].pingApp[24] numLost:last 216
attr interpolationmode none
attr title "pings lost, last"
scalar BusLAN.host[0].pingApp[24] rtt:mean 0.0095675509123529
attr interpolationmode none
attr title "ping round-trip time, mean"
attr unit s
scalar BusLAN.host[0].pingApp[25] "Pings sent" 395
scalar BusLAN.host[0].pingApp[25] "ping loss rate (%)" 58.987341772152
scalar BusLAN.host[0].pingApp[25] "ping out-of-order rate (%)" 0.25316455696203
scalar BusLAN.host[0].pingApp[25] pingRxSeq:count 127
attr interpolationmode none
attr title "ping rx seq, count"
scalar BusLAN.host[0].pingApp[25] pingTxSeq:count 305
attr interpolationmode none
attr title "ping tx seq, count"
scalar BusLAN.host[0].pingApp[25] numOutOfOrderArrivals:last nan
attr interpolationmode none
attr title "ping out-of-order arrivals, last"
scalar BusLAN.host[0].pingApp[25] numLost:last 230
attr interpolationmode none
attr title "pings lost, last"
scalar BusLAN.host[0].pingApp[25] rtt:mean 0.0096257113031146
attr interpolationmode none
attr title "ping round-trip time, mean"
attr unit s
scalar BusLAN.host[0].pingApp[26] "Pings sent" 393
scalar BusLAN.host[0].pingApp[26] "ping loss rate (%)" 55.979643765903
scalar BusLAN.host[0].pingApp[26] "ping out-of-order rate (%)" 0.5089058524173
scalar BusLAN.host[0].pingApp[26] pingRxSeq:count 132
attr interpolationmode none
attr title "ping rx seq, count"
scalar BusLAN.host[0].pingApp[26] pingTxSeq:count 299
attr interpolationmode none
attr title "ping tx seq, count"
scalar BusLAN.host[0].pingApp[26] numOutOfOrderArrivals:last 2
attr interpolationmode none
attr title "ping out-of-order arrivals, last"
scalar BusLAN.host[0].pingApp[26] numLost:last 219
attr interpolationmode none
attr title "pings lost, last"
scalar BusLAN.host[0].pingApp[26] rtt:mean 0.0084428769218817
attr interpolationmode none
attr title "ping round-trip time, mean"
attr unit s
scalar BusLAN.host[0].pingApp[27] "Pings sent" 381
scalar BusLAN.host[0].pingApp[27] "ping loss rate (%)" 52.230971128609
scalar BusLAN.host[0].pingApp[27] "ping out-of-order rate (%)" 0.26246719160105
scalar BusLAN.host[0].pingApp[27] pingRxSeq:count 140
attr interpolationmode none
attr title "ping rx seq, count"
scalar BusLAN.host[0].pingApp[27] pingTxSeq:count 286
attr interpolationmode none
attr title "ping tx seq, count"
scalar BusLAN.host[0].pingApp[27] numOutOfOrderArrivals:last 1
attr interpolationmode none
attr title "ping out-of-order arrivals, last"
scalar BusLAN.host[0].pingApp[27] numLost:last 199
attr interpolationmode none
attr title "pings lost, last"
scalar BusLAN.host[0].pingApp[27] rtt:mean 0.0092777593393394
attr interpolationmode none
attr title "ping round-trip time, mean"
attr unit s
scalar BusLAN.host[0].pingApp[28] "Pings sent" 383
scalar BusLAN.host[0].pingApp[28] "ping loss rate (%)" 56.919060052219
scalar BusLAN.host[0].pingApp[28] "ping out-of-order rate (%)" 0
scalar BusLAN.host[0].pingApp[28] pingRxSeq:count 120
attr interpolationmode none
attr title "ping rx seq, count"
scalar BusLAN.host[0].pingApp[28] pingTxSeq:count 290
attr interpolationmode none
attr title "ping tx seq, count"
scalar BusLAN.host[0].pingApp[28] numOutOfOrderArrivals:last nan
attr interpolationmode none
attr title "ping out-of-order arrivals, last"
scalar BusLAN.host[0].pingApp[28] numLost:last 218
attr interpolationmode none
attr title "pings lost, last"
scalar BusLAN.host[0].pingApp[28] rtt:mean 0.0095644755678421
attr interpolationmode none
attr title "ping round-trip time, mean"
attr unit s
scalar BusLAN.host[0].pingApp[29] "Pings sent" 376
scalar BusLAN.host[0].pingApp[29] "ping loss rate (%)" 56.648936170213
scalar BusLAN.host[0].pingApp[29] "ping out-of-order rate (%)" 0
scalar BusLAN.host[0].pingApp[29] pingRxSeq:count 116
attr interpolationmode none
attr title "ping rx seq, count"
scalar BusLAN.host[0].pingApp[29] pingTxSeq:count 277
attr interpolationmode none
attr title "ping tx seq, count"
scalar BusLAN.host[0].pingApp[29] numOutOfOrderArrivals:last nan
attr interpolationmode none
attr title "ping out-of-order arrivals, last"
scalar BusLAN.host[0].pingApp[29] numLost:last 211
attr interpolationmode none
attr title "pings lost, last"
scalar BusLAN.host[0].pingApp[29] rtt:mean 0.0092837341409444
attr interpolationmode none
attr title "ping round-trip time, mean"
attr unit s
scalar BusLAN.host[0].pingApp[30] "Pings sent" 387
scalar BusLAN.host[0].pingApp[30] "ping loss rate (%)" 52.713178294574
scalar BusLAN.host[0].pingApp[30] "ping out-of-order rate (%)" 0.77519379844961
scalar BusLAN.host[0].pingApp[30] pingRxSeq:count 137
attr interpolationmode none
attr title "ping rx seq, count"
scalar BusLAN.host[0].pingApp[30] pingTxSeq:count 288
attr interpolationmode none
attr title "ping tx seq, count"
scalar BusLAN.host[0].pingApp[30] numOutOfOrderArrivals:last 3
attr interpolationmode none
attr title "ping out-of-order arrivals, last"
scalar BusLAN.host[0].pingApp[30] numLost:last 199
attr interpolationmode none
attr title "pings lost, last"
scalar BusLAN.host[0].pingApp[30] rtt:mean 0.0086207634783962
attr interpolationmode none
attr title "ping round-trip time, mean"
attr unit s
scalar BusLAN.host[0].pingApp[31] "Pings sent" 377
scalar BusLAN.host[0].pingApp[31] "ping loss rate (%)" 61.007957559682
scalar BusLAN.host[0].pingApp[31] "ping out-of-order rate (%)" 0.53050397877984
scalar BusLAN.host[0].pingApp[31] pingRxSeq:count 109
attr interpolationmode none
attr title "ping rx seq, count"
scalar BusLAN.host[0].pingApp[31] pingTxSeq:count 282
attr interpolationmode none
attr title "ping tx seq, count"
scalar BusLAN.host[0].pingApp[31] numOutOfOrderArrivals:last 2
attr interpolationmode none
attr title "ping out-of-order arrivals, last"
scalar BusLAN.host[0].pingApp[31] numLost:last 229
attr interpolationmode none
attr title "pings lost, last"
scalar BusLAN.host[0].pingApp[31] rtt:mean 0.0088473787557045
attr interpolationmode none
attr title "ping round-trip time, mean"
attr unit s
scalar BusLAN.host[0].pingApp[32] "Pings sent" 378
scalar BusLAN.host[0].pingApp[32] "ping loss rate (%)" 56.613756613757
scalar BusLAN.host[0].pingApp[32] "ping out-of-order rate (%)" 0
scalar BusLAN.host[0].pingApp[32] pingRxSeq:count 118
attr interpolationmode none
attr title "ping rx seq, count"
scalar BusLAN.host[0].pingApp[32] pingTxSeq:count 290
attr interpolationmode none
attr title "ping tx seq, count"
scalar BusLAN.host[0].pingApp[32] numOutOfOrderArrivals:last nan
attr interpolationmode none
attr title "ping out-of-order arrivals, last"
scalar BusLAN.host[0].pingApp[32] numLost:last 206
attr interpolationmode none
attr title "pings lost, last"
scalar BusLAN.host[0].pingApp[32] rtt:mean 0.0095819543621075
attr interpolationmode none
attr title "ping round-trip time, mean"
attr unit s
scalar BusLAN.host[0].pingApp[33] "Pings sent" 381
scalar BusLAN.host[0].pingApp[33] "ping loss rate (%)" 58.792650918635
scalar BusLAN.host[0].pingApp[33] "ping out-of-order rate (%)" 0
scalar BusLAN.host[0].pingApp[33] pingRxSeq:count 124
attr interpolationmode none
attr title "ping rx seq, count"
scalar BusLAN.host[0].pingApp[33] pingTxSeq:count 282
attr interpolationmode none
attr title "ping tx seq, count"
scalar BusLAN.host[0].pingApp[33] numOutOfOrderArrivals:last nan
attr interpolationmode none
attr title "ping out-of-order arrivals, last"
scalar BusLAN.host[0].pingApp[33] numLost:last 221
attr interpolationmode none
attr title "pings lost, last"
scalar BusLAN.host[0].pingApp[33] rtt:mean 0.0090021809129438
attr interpolationmode none
attr title "ping round-trip time, mean"
attr unit s
scalar BusLAN.host[0].pingApp[34] "Pings sent" 391
scalar BusLAN.host[0].pingApp[34] "ping loss rate (%)" 54.731457800512
scalar BusLAN.host[0].pingApp[34] "ping out-of-order rate (%)" 0.25575447570332
scalar BusLAN.host[0].pingApp[34] pingRxSeq:count 135
attr interpolationmode none
attr title "ping rx seq, count"
scalar BusLAN.host[0].pingApp[34] pingTxSeq:count 294
attr interpolationmode none
attr title "ping tx seq, count"
scalar BusLAN.host[0].pingApp[34] numOutOfOrderArrivals:last 1
attr interpolationmode none
attr title "ping out-of-order arrivals, last"
scalar BusLAN.host[0].pingApp[34] numLost:last 212
attr interpolationmode none
attr title "pings lost, last"
scalar BusLAN.host[0].pingApp[34] rtt:mean 0.0096072385648785
attr interpolationmode none
attr title "ping round-trip time, mean"
attr unit s
scalar BusLAN.host[0].pingApp[35] "Pings sent" 389
scalar BusLAN.host[0].pingApp[35] "ping loss rate (%)" 59.897172236504
scalar BusLAN.host[0].pingApp[35] "ping out-of-order rate (%)" 0
scalar BusLAN.host[0].pingApp[35] pingRxSeq:count 112
attr interpolationmode none
attr title "ping rx seq, count"
scalar BusLAN.host[0].pingApp[35] pingTxSeq:count 285
attr interpolationmode none
attr title "ping tx seq, count"
scalar BusLAN.host[0].pingApp[35] numOutOfOrderArrivals:last nan
attr interpolationmode none
attr title "ping out-of-order arrivals, last"
scalar BusLAN.host[0].pingApp[35] numLost:last 233
attr interpolationmode none
attr title "pings lost, last"
scalar BusLAN.host[0].pingApp[35] rtt:mean 0.0089423007826742
attr interpolationmode none
attr title "ping round-trip time, mean"
attr unit s
scalar BusLAN.host[0].pingApp[36] "Pings sent" 366
scalar BusLAN.host[0].pingApp[36] "ping loss rate (%)" 55.737704918033
scalar BusLAN.host[0].pingApp[36] "ping out-of-order rate (%)" 0.27322404371585
scalar BusLAN.host[0].pingApp[36] pingRxSeq:count 128
attr interpolationmode none
attr title "ping rx seq, count"
scalar BusLAN.host[0].pingApp[36] pingTxSeq:count 283
attr interpolationmode none
attr title "ping tx seq, count"
scalar BusLAN.host[0].pingApp[36] numOutOfOrderArrivals:last 1
attr interpolationmode none
attr title "ping out-of-order arrivals, last"
scalar BusLAN.host[0].pingApp[36] numLost:last 203
attr interpolationmode none
attr title "pings lost, last"
scalar BusLAN.host[0].pingApp[36] rtt:mean 0.0099625642290392
attr interpolationmode none
attr title "ping round-trip time, mean"
attr unit s
scalar BusLAN.host[0].pingApp[37] "Pings sent" 399
scalar BusLAN.host[0].pingApp[37] "ping loss rate (%)" 56.641604010025
scalar BusLAN.host[0].pingApp[37] "ping out-of-order rate (%)" 0
scalar BusLAN.host[0].pingApp[37] pingRxSeq:count 130
attr interpolationmode none
attr title "ping rx seq, count"
scalar BusLAN.host[0].pingApp[37] pingTxSeq:count 301
attr interpolationmode none
attr title "ping tx seq, count"
scalar BusLAN.host[0].pingApp[37] numOutOfOrderArrivals:last nan
attr interpolationmode none
attr title "ping out-of-order arrivals, last"
scalar BusLAN.host[0].pingApp[37] numLost:last 223
attr interpolationmode none
attr title "pings lost, last"
scalar BusLAN.host[0].pingApp[37] rtt:mean 0.0092023172127778
attr interpolationmode none
attr title "ping round-trip time, mean"
attr unit s
scalar BusLAN.host[0].pingApp[38] "Pings sent" 398
scalar BusLAN.host[0].pingApp[38] "ping loss rate (%)" 56.281407035176
scalar BusLAN.host[0].pingApp[38] "ping out-of-order rate (%)" 0
scalar BusLAN.host[0].pingApp[38] pingRxSeq:count 131
attr interpolationmode none
attr title "ping rx seq, count"
scalar BusLAN.host[0].pingApp[38] pingTxSeq:count 300
attr interpolationmode none
attr title "ping tx seq, count"
scalar BusLAN.host[0].pingApp[38] numOutOfOrderArrivals:last nan
attr interpolationmode none
attr title "ping out-of-order arrivals, last"
scalar BusLAN.host[0].pingApp[38] numLost:last 220
attr interpolationmode none
attr title "pings lost, last"
scalar BusLAN.host[0].pingApp[38] rtt:mean 0.0095034176771765
attr interpolationmode none
attr title "ping round-trip time, mean"
attr unit s
scalar BusLAN.host[0].pingApp[39] "Pings sent" 381
scalar BusLAN.host[0].pingApp[39] "ping loss rate (%)" 56.430446194226
scalar BusLAN.host[0].pingApp[39] "ping out-of-order rate (%)" 0
scalar BusLAN.host[0].pingApp[39] pingRxSeq:count 129
attr interpolationmode none
attr title "ping rx seq, count"
scalar BusLAN.host[0].pingApp[39] pingTxSeq:count 289
attr interpolationmode none
attr title "ping tx seq, count"
scalar BusLAN.host[0].pingApp[39] numOutOfOrderArrivals:last nan
attr interpolationmode none
attr title "ping out-of-order arrivals, last"
scalar BusLAN.host[0].pingApp[39] numLost:last 212
attr interpolationmode none
attr title "pings lost, last"
scalar BusLAN.host[0].pingApp[39] rtt:mean 0.0096703653610792
attr interpolationmode none
attr title "ping round-trip time, mean"
attr unit s
scalar BusLAN.host[0].pingApp[40] "Pings sent" 382
scalar BusLAN.host[0].pingApp[40] "ping loss rate (%)" 54.712041884817
scalar BusLAN.host[0].pingApp[40] "ping out-of-order rate (%)" 0
scalar BusLAN.host[0].pingApp[40] pingRxSeq:count 133
attr interpolationmode none
attr title "ping rx seq, count"
scalar BusLAN.host[0].pingApp[40] pingTxSeq:count 288
attr interpolationmode none
attr title "ping tx seq, count"
scalar BusLAN.host[0].pingApp[40] numOutOfOrderArrivals:last nan
attr interpolationmode none
attr title "ping out-of-order arrivals, last"
scalar BusLAN.host[0].pingApp[40] numLost:last 208
attr interpolationmode none
attr title "pings lost, last"
scalar BusLAN.host[0].pingApp[40] rtt:mean 0.008845188708268
attr interpolationmode none
attr title "ping round-trip time, mean"
attr unit s
scalar BusLAN.host[0].pingApp[41] "Pings sent" 386
scalar BusLAN.host[0].pingApp[41] "ping loss rate (%)" 54.922279792746
scalar BusLAN.host[0].pingApp[41] "ping out-of-order rate (%)" 0.25906735751295
scalar BusLAN.host[0].pingApp[41] pingRxSeq:count 132
attr interpolationmode none
attr title "ping rx seq, count"
scalar BusLAN.host[0].pingApp[41] pingTxSeq:count 296
attr interpolationmode none
attr title "ping tx seq, count"
scalar BusLAN.host[0].pingApp[41] numOutOfOrderArrivals:last 1
attr interpolationmode none
attr title "ping out-of-order arrivals, last"
scalar BusLAN.host[0].pingApp[41] numLost:last 207
attr interpolationmode none
attr title "pings lost, last"
scalar BusLAN.host[0].pingApp[41] rtt:mean 0.0097769159285556
attr interpolationmode none
attr title "ping round-trip time, mean"
attr unit s
scalar BusLAN.host[0].pingApp[42] "Pings sent" 390
scalar BusLAN.host[0].pingApp[42] "ping loss rate (%)" 58.717948717949
scalar BusLAN.host[0].pingApp[42] "ping out-of-order rate (%)" 0
scalar BusLAN.host[0].pingApp[42] pingRxSeq:count 125
attr interpolationmode none
attr title "ping rx seq, count"
scalar BusLAN.host[0].pingApp[42] pingTxSeq:count 290
attr interpolationmode none
attr title "ping tx seq, count"
scalar BusLAN.host[0].pingApp[42] numOutOfOrderArrivals:last nan
attr interpolationmode none
attr title "ping out-of-order arrivals, last"
scalar BusLAN.host[0].pingApp[42] numLost:last 227
attr interpolationmode none
attr title "pings lost, last"
scalar BusLAN.host[0].pingApp[42] rtt:mean 0.0089501294662784
attr interpolationmode none
attr title "ping round-trip time, mean"
attr unit s
scalar BusLAN.host[0].pingApp[43] "Pings sent" 382
scalar BusLAN.host[0].pingApp[43] "ping loss rate (%)" 57.853403141361
scalar BusLAN.host[0].pingApp[43] "ping out-of-order rate (%)" 0.26178010471204
scalar BusLAN.host[0].pingApp[43] pingRxSeq:count 126
attr interpolationmode none
attr title "ping rx seq, count"
scalar BusLAN.host[0].pingApp[43] pingTxSeq:count 289
attr interpolationmode none
attr title "ping tx seq, count"
scalar BusLAN.host[0].pingApp[43] numOutOfOrderArrivals:last 1
attr interpolationmode none
attr title "ping out-of-order arrivals, last"
scalar BusLAN.host[0].pingApp[43] numLost:last 221
attr interpolationmode none
attr title "pings lost, last"
scalar BusLAN.host[0].pingApp[43] rtt:mean 0.0086770471263592
attr interpolationmode none
attr title "ping round-trip time, mean"
attr unit s
scalar BusLAN.host[0].pingApp[44] "Pings sent" 389
scalar BusLAN.host[0].pingApp[44] "ping loss rate (%)" 55.526992287918
scalar BusLAN.host[0].pingApp[44] "ping out-of-order rate (%)" 0
scalar BusLAN.host[0].pingApp[44] pingRxSeq:count 134
attr interpolationmode none
attr title "ping rx seq, count"
scalar BusLAN.host[0].pingApp[44] pingTxSeq:count 296
attr interpolationmode none
attr title "ping tx seq, count"
scalar BusLAN.host[0].pingApp[44] numOutOfOrderArrivals:last nan
attr interpolationmode none
attr title "ping out-of-order arrivals, last"
scalar BusLAN.host[0].pingApp[44] numLost:last 216
attr interpolationmode none
attr title "pings lost, last"
scalar BusLAN.host[0].pingApp[44] rtt:mean 0.0096050284816058
attr interpolationmode none
attr title "ping round-trip time, mean"
attr unit s
scalar BusLAN.host[0].pingApp[45] "Pings sent" 385
scalar BusLAN.host[0].pingApp[45] "ping loss rate (%)" 54.025974025974
scalar BusLAN.host[0].pingApp[45] "ping out-of-order rate (%)" 0.25974025974026
scalar BusLAN.host[0].pingApp[45] pingRxSeq:count 132
attr interpolationmode none
attr title "ping rx seq, count"
scalar BusLAN.host[0].pingApp[45] pingTxSeq:count 286
attr interpolationmode none
attr title "ping tx seq, count"
scalar BusLAN.host[0].pingApp[45] numOutOfOrderArrivals:last 1
attr interpolationmode none
attr title "ping out-of-order arrivals, last"
scalar BusLAN.host[0].pingApp[45] numLost:last 206
attr interpolationmode none
attr title "pings lost, last"
scalar BusLAN.host[0].pingApp[45] rtt:mean 0.0098503717194074
attr interpolationmode none
attr title "ping round-trip time, mean"
attr unit s
scalar BusLAN.host[0].pingApp[46] "Pings sent" 399
scalar BusLAN.host[0].pingApp[46] "ping loss rate (%)" 55.137844611529
scalar BusLAN.host[0].pingApp[46] "ping out-of-order rate (%)" 0
scalar BusLAN.host[0].pingApp[46] pingRxSeq:count 134
attr interpolationmode none
attr title "ping rx seq, count"
scalar BusLAN.host[0].pingApp[46] pingTxSeq:count 301
attr interpolationmode none
attr title "ping tx seq, count"
scalar BusLAN.host[0].pingApp[46] numOutOfOrderArrivals:last nan
attr interpolationmode none
attr title "ping out-of-order arrivals, last"
scalar BusLAN.host[0].pingApp[46] numLost:last 220
attr interpolationmode none
attr title "pings lost, last"
scalar BusLAN.host[0].pingApp[46] rtt:mean 0.0093196016441058
attr interpolationmode none
attr title "ping round-trip time, mean"
attr unit s
scalar BusLAN.host[0].pingApp[47] "Pings sent" 403
scalar BusLAN.host[0].pingApp[47] "ping loss rate (%)" 57.816377171216
scalar BusLAN.host[0].pingApp[47] "ping out-of-order rate (%)" 0
scalar BusLAN.host[0].pingApp[47] pingRxSeq:count 129
attr interpolationmode none
attr title "ping rx seq, count"
scalar BusLAN.host[0].pingApp[47] pingTxSeq:count 307
attr interpolationmode none
attr title "ping tx seq, count"
scalar BusLAN.host[0].pingApp[47] numOutOfOrderArrivals:last nan
attr interpolationmode none
attr title "ping out-of-order arrivals, last"
scalar BusLAN.host[0].pingApp[47] numLost:last 231
attr interpolationmode none
attr title "pings lost, last"
scalar BusLAN.host[0].pingApp[47] rtt:mean 0.0090030033252524
attr interpolationmode none
attr title "ping round-trip time, mean"
attr unit s
scalar BusLAN.host[0].pingApp[48] "Pings sent" 379
scalar BusLAN.host[0].pingApp[48] "ping loss rate (%)" 60.422163588391
scalar BusLAN.host[0].pingApp[48] "ping out-of-order rate (%)" 0.26385224274406
scalar BusLAN.host[0].pingApp[48] pingRxSeq:count 108
attr interpolationmode none
attr title "ping rx seq, count"
scalar BusLAN.host[0].pingApp[48] pingTxSeq:count 289
attr interpolationmode none
attr title "ping tx seq, count"
scalar BusLAN.host[0].pingApp[48] numOutOfOrderArrivals:last 1
attr interpolationmode none
attr title "ping out-of-order arrivals, last"
scalar BusLAN.host[0].pingApp[48] numLost:last 227
attr interpolationmode none
attr title "pings lost, last"
scalar BusLAN.host[0].pingApp[48] rtt:mean 0.0090660590658295
attr interpolationmode none
attr title "ping round-trip time, mean"
attr unit s
scalar BusLAN.host[0].pingApp[49] "Pings sent" 381
scalar BusLAN.host[0].pingApp[49] "ping loss rate (%)" 59.842519685039
scalar BusLAN.host[0].pingApp[49] "ping out-of-order rate (%)" 0
scalar BusLAN.host[0].pingApp[49] pingRxSeq:count 119
attr interpolationmode none
attr title "ping rx seq, count"
scalar BusLAN.host[0].pingApp[49] pingTxSeq:count 286
attr interpolationmode none
attr title "ping tx seq, count"
scalar BusLAN.host[0].pingApp[49] numOutOfOrderArrivals:last nan
attr interpolationmode none
attr title "ping out-of-order arrivals, last"
scalar BusLAN.host[0].pingApp[49] numLost:last 228
attr interpolationmode none
attr title "pings lost, last"
scalar BusLAN.host[0].pingApp[49] rtt:mean 0.008846490396375
attr interpolationmode none
attr title "ping round-trip time, mean"
attr unit s
scalar BusLAN.host[0].pingApp[50] "Pings sent" 380
scalar BusLAN.host[0].pingApp[50] "ping loss rate (%)" 58.421052631579
scalar BusLAN.host[0].pingApp[50] "ping out-of-order rate (%)" 0.52631578947368
scalar BusLAN.host[0].pingApp[50] pingRxSeq:count 105
attr interpolationmode none
attr title "ping rx seq, count"
scalar BusLAN.host[0].pingApp[50] pingTxSeq:count 282
attr interpolationmode none
attr title "ping tx seq, count"
scalar BusLAN.host[0].pingApp[50] numOutOfOrderArrivals:last 2
attr interpolationmode none
attr title "ping out-of-order arrivals, last"
scalar BusLAN.host[0].pingApp[50] numLost:last 221
attr interpolationmode none
attr title "pings lost, last"
scalar BusLAN.host[0].pingApp[50] rtt:mean 0.0085714739718
attr interpolationmode none
attr title "ping round-trip time, mean"
attr unit s
scalar BusLAN.host[0].pingApp[51] "Pings sent" 374
scalar BusLAN.host[0].pingApp[51] "ping loss rate (%)" 58.823529411765
scalar BusLAN.host[0].pingApp[51] "ping out-of-order rate (%)" 0
scalar BusLAN.host[0].pingApp[51] pingRxSeq:count 114
attr interpolationmode none
attr title "ping rx seq, count"
scalar BusLAN.host[0].pingApp[51] pingTxSeq:count 275
attr interpolationmode none
attr title "ping tx seq, count"
scalar BusLAN.host[0].pingApp[51] numOutOfOrderArrivals:last nan
attr interpolationmode none
attr title "ping out-of-order arrivals, last"
scalar BusLAN.host[0].pingApp[51] numLost:last 219
attr interpolationmode none
attr title "pings lost, last"
scalar BusLAN.host[0].pingApp[51] rtt:mean 0.0097496448561868
attr interpolationmode none
attr title "ping round-trip time, mean"
attr unit s
scalar BusLAN.host[0].pingApp[52] "Pings sent" 379
scalar BusLAN.host[0].pingApp[52] "ping loss rate (%)" 56.992084432718
scalar BusLAN.host[0].pingApp[52] "ping out-of-order rate (%)" 0.26385224274406
scalar BusLAN.host[0].pingApp[52] pingRxSeq:count 124
attr interpolationmode none
attr title "ping rx seq, count"
scalar BusLAN.host[0].pingApp[52] pingTxSeq:count 287
attr interpolationmode none
attr title "ping tx seq, count"
scalar BusLAN.host[0].pingApp[52] numOutOfOrderArrivals:last 1
attr interpolationmode none
attr title "ping out-of-order arrivals, last"
scalar BusLAN.host[0].pingApp[52] numLost:last 215
attr interpolationmode none
attr title "pings lost, last"
scalar BusLAN.host[0].pingApp[52] rtt:mean 0.0091535329148763
attr interpolationmode none
attr title "ping round-trip time, mean"
attr unit s
scalar BusLAN.host[0].pingApp[53] "Pings sent" 391
scalar BusLAN.host[0].pingApp[53] "ping loss rate (%)" 55.754475703325
scalar BusLAN.host[0].pingApp[53] "ping out-of-order rate (%)" 0
scalar BusLAN.host[0].pingApp[53] pingRxSeq:count 128
attr interpolationmode none
attr title "ping rx seq, count"
scalar BusLAN.host[0].pingApp[53] pingTxSeq:count 288
attr interpolationmode none
attr title "ping tx seq, count"
scalar BusLAN.host[0].pingApp[53] numOutOfOrderArrivals:last nan
attr interpolationmode none
attr title "ping out-of-order arrivals, last"
scalar BusLAN.host[0].pingApp[53] numLost:last 216
attr interpolationmode none
attr title "pings lost, last"
scalar BusLAN.host[0].pingApp[53] rtt:mean 0.0095250501703191
attr interpolationmode none
attr title "ping round-trip time, mean"
attr unit s
scalar BusLAN.host[0].pingApp[54] "Pings sent" 387
scalar BusLAN.host[0].pingApp[54] "ping loss rate (%)" 54.263565891473
scalar BusLAN.host[0].pingApp[54] "ping out-of-order rate (%)" 0
scalar BusLAN.host[0].pingApp[54] pingRxSeq:count 140
attr interpolationmode none
attr title "ping rx seq, count"
scalar BusLAN.host[0].pingApp[54] pingTxSeq:count 296
attr interpolationmode none
attr title "ping tx seq, count"
scalar BusLAN.host[0].pingApp[54] numOutOfOrderArrivals:last nan
attr interpolationmode none
attr title "ping out-of-order arrivals, last"
scalar BusLAN.host[0].pingApp[54] numLost:last 210
attr interpolationmode none
attr title "pings lost, last"
scalar BusLAN.host[0].pingApp[54] rtt:mean 0.0095732546772264
attr interpolationmode none
attr title "ping round-trip time, mean"
attr unit s
scalar BusLAN.host[0].pingApp[55] "Pings sent" 383
scalar BusLAN.host[0].pingApp[55] "ping loss rate (%)" 56.919060052219
scalar BusLAN.host[0].pingApp[55] "ping out-of-order rate (%)" 0
scalar BusLAN.host[0].pingApp[55] pingRxSeq:count 126
attr interpolationmode none
attr title "ping rx seq, count"
scalar BusLAN.host[0].pingApp[55] pingTxSeq:count 292
attr interpolationmode none
attr title "ping tx seq, count"
scalar BusLAN.host[0].pingApp[55] numOutOfOrderArrivals:last nan
attr interpolationmode none
attr title "ping out-of-order arrivals, last"
scalar BusLAN.host[0].pingApp[55] numLost:last 211
attr interpolationmode none
attr title "pings lost, last"
scalar BusLAN.host[0].pingApp[55] rtt:mean 0.0097375387679899
attr interpolationmode none
attr title "ping round-trip time, mean"
attr unit s
scalar BusLAN.host[0].pingApp[56] "Pings sent" 399
scalar BusLAN.host[0].pingApp[56] "ping loss rate (%)" 57.142857142857
scalar BusLAN.host[0].pingApp[56] "ping out-of-order rate (%)" 0
scalar BusLAN.host[0].pingApp[56] pingRxSeq:count 124
attr interpolationmode none
attr title "ping rx seq, count"
scalar BusLAN.host[0].pingApp[56] pingTxSeq:count 300
attr interpolationmode none
attr title "ping tx seq, count"
scalar BusLAN.host[0].pingApp[56] numOutOfOrderArrivals:last nan
attr interpolationmode none
attr title "ping out-of-order arrivals, last"
scalar BusLAN.host[0].pingApp[56] numLost:last 228
attr interpolationmode none
attr title "pings lost, last"
scalar BusLAN.host[0].pingApp[56] rtt:mean 0.010022551823899
attr interpolationmode none
attr title "ping round-trip time, mean"
attr unit s
scalar BusLAN.host[0].pingApp[57] "Pings sent" 389
scalar BusLAN.host[0].pingApp[57] "ping loss rate (%)" 59.125964010283
scalar BusLAN.host[0].pingApp[57] "ping out-of-order rate (%)" 0
scalar BusLAN.host[0].pingApp[57] pingRxSeq:count 120
attr interpolationmode none
attr title "ping rx seq, count"
scalar BusLAN.host[0].pingApp[57] pingTxSeq:count 298
attr interpolationmode none
attr title "ping tx seq, count"
scalar BusLAN.host[0].pingApp[57] numOutOfOrderArrivals:last nan
attr interpolationmode none
attr title "ping out-of-order arrivals, last"
scalar BusLAN.host[0].pingApp[57] numLost:last 227
attr interpolationmode none
attr title "pings lost, last"
scalar BusLAN.host[0].pingApp[57] rtt:mean 0.009801904962766
attr interpolationmode none
attr title "ping round-trip time, mean"
attr unit s
scalar BusLAN.host[0].pingApp[58] "Pings sent" 379
scalar BusLAN.host[0].pingApp[58] "ping loss rate (%)" 56.992084432718
scalar BusLAN.host[0].pingApp[58] "ping out-of-order rate (%)" 0
scalar BusLAN.host[0].pingApp[58] pingRxSeq:count 126
attr interpolationmode none
attr title "ping rx seq, count"
scalar BusLAN.host[0].pingApp[58] pingTxSeq:count 282
attr interpolationmode none
attr title "ping tx seq, count"
scalar BusLAN.host[0].pingApp[58] numOutOfOrderArrivals:last nan
attr interpolationmode none
attr title "ping out-of-order arrivals, last"
scalar BusLAN.host[0].pingApp[58] numLost:last 216
attr interpolationmode none
attr title "pings lost, last"
scalar BusLAN.host[0].pingApp[58] rtt:mean 0.0089400927826778
attr interpolationmode none
attr title "ping round-trip time, mean"
attr unit s
scalar BusLAN.host[0].pingApp[59] "Pings sent" 393
scalar BusLAN.host[0].pingApp[59] "ping loss rate (%)" 57.506361323155
scalar BusLAN.host[0].pingApp[59] "ping out-of-order rate (%)" 0.25445292620865
scalar BusLAN.host[0].pingApp[59] pingRxSeq:count 129
attr interpolationmode none
attr title "ping rx seq, count"
scalar BusLAN.host[0].pingApp[59] pingTxSeq:count 308
attr interpolationmode none
attr title "ping tx seq, count"
scalar BusLAN.host[0].pingApp[59] numOutOfOrderArrivals:last 1
attr interpolationmode none
attr title "ping out-of-order arrivals, last"
scalar BusLAN.host[0].pingApp[59] numLost:last 224
attr interpolationmode none
attr title "pings lost, last"
scalar BusLAN.host[0].pingApp[59] rtt:mean 0.0088857020067174
attr interpolationmode none
attr title "ping round-trip time, mean"
attr unit s
scalar BusLAN.host[0].pingApp[60] "Pings sent" 387
scalar BusLAN.host[0].pingApp[60] "ping loss rate (%)" 59.948320413437
scalar BusLAN.host[0].pingApp[60] "ping out-of-order rate (%)" 0
scalar BusLAN.host[0].pingApp[60] pingRxSeq:count 122
attr interpolationmode none
attr title "ping rx seq, count"
scalar BusLAN.host[0].pingApp[60] pingTxSeq:count 292
attr interpolationmode none
attr title "ping tx seq, count"
scalar BusLAN.host[0].pingApp[60] numOutOfOrderArrivals:last nan
attr interpolationmode none
attr title "ping out-of-order arrivals, last"
scalar BusLAN.host[0].pingApp[60] numLost:last 231
attr interpolationmode none
attr title "pings lost, last"
scalar BusLAN.host[0].pingApp[60] rtt:mean 0.0096635363797582
attr interpolationmode none
attr title "ping round-trip time, mean"
attr unit s
scalar BusLAN.host[0].pingApp[61] "Pings sent" 385
scalar BusLAN.host[0].pingApp[61] "ping loss rate (%)" 55.324675324675
scalar BusLAN.host[0].pingApp[61] "ping out-of-order rate (%)" 0.25974025974026
scalar BusLAN.host[0].pingApp[61] pingRxSeq:count 125
attr interpolationmode none
attr title "ping rx seq, count"
scalar BusLAN.host[0].pingApp[61] pingTxSeq:count 293
attr interpolationmode none
attr title "ping tx seq, count"
scalar BusLAN.host[0].pingApp[61] numOutOfOrderArrivals:last 1
attr interpolationmode none
attr title "ping out-of-order arrivals, last"
scalar BusLAN.host[0].pingApp[61] numLost:last 213
attr interpolationmode none
attr title "pings lost, last"
scalar BusLAN.host[0].pingApp[61] rtt:mean 0.0095581397212872
attr interpolationmode none
attr title "ping round-trip time, mean"
attr unit s
scalar BusLAN.host[0].pingApp[62] "Pings sent" 387
scalar BusLAN.host[0].pingApp[62] "ping loss rate (%)" 60.46511627907
scalar BusLAN.host[0].pingApp[62] "ping out-of-order rate (%)" 0.25839793281654
scalar BusLAN.host[0].pingApp[62] pingRxSeq:count 120
attr interpolationmode none
attr title "ping rx seq, count"
scalar BusLAN.host[0].pingApp[62] pingTxSeq:count 303
attr interpolationmode none
attr title "ping tx seq, count"
scalar BusLAN.host[0].pingApp[62] numOutOfOrderArrivals:last nan
attr interpolationmode none
attr title "ping out-of-order arrivals, last"
scalar BusLAN.host[0].pingApp[62] numLost:last 233
attr interpolationmode none
attr title "pings lost, last"
scalar BusLAN.host[0].pingApp[62] rtt:mean 0.0093847348399136
attr interpolationmode none
attr title "ping round-trip time, mean"
attr unit s
scalar BusLAN.host[0].pingApp[63] "Pings sent" 395
scalar BusLAN.host[0].pingApp[63] "ping loss rate (%)" 55.189873417722
scalar BusLAN.host[0].pingApp[63] "ping out-of-order rate (%)" 0.25316455696203
scalar BusLAN.host[0].pingApp[63] pingRxSeq:count 135
attr interpolationmode none
attr title "ping rx seq, count"
scalar BusLAN.host[0].pingApp[63] pingTxSeq:count 295
attr interpolationmode none
attr title "ping tx seq, count"
scalar BusLAN.host[0].pingApp[63] numOutOfOrderArrivals:last 1
attr interpolationmode none
attr title "ping out-of-order arrivals, last"
scalar BusLAN.host[0].pingApp[63] numLost:last 217
attr interpolationmode none
attr title "pings lost, last"
scalar BusLAN.host[0].pingApp[63] rtt:mean 0.0094965739651869
attr interpolationmode none
attr title "ping round-trip time, mean"
attr unit s
scalar BusLAN.host[0].pingApp[64] "Pings sent" 383
scalar BusLAN.host[0].pingApp[64] "ping loss rate (%)" 54.830287206266
scalar BusLAN.host[0].pingApp[64] "ping out-of-order rate (%)" 0
scalar BusLAN.host[0].pingApp[64] pingRxSeq:count 134
attr interpolationmode none
attr title "ping rx seq, count"
scalar BusLAN.host[0].pingApp[64] pingTxSeq:count 289
attr interpolationmode none
attr title "ping tx seq, count"
scalar BusLAN.host[0].pingApp[64] numOutOfOrderArrivals:last nan
attr interpolationmode none
attr title "ping out-of-order arrivals, last"
scalar BusLAN.host[0].pingApp[64] numLost:last 207
attr interpolationmode none
attr title "pings lost, last"
scalar BusLAN.host[0].pingApp[64] rtt:mean 0.0094784525915437
attr interpolationmode none
attr title "ping round-trip time, mean"
attr unit s
scalar BusLAN.host[0].pingApp[65] "Pings sent" 393
scalar BusLAN.host[0].pingApp[65] "ping loss rate (%)" 55.216284987277
scalar BusLAN.host[0].pingApp[65] "ping out-of-order rate (%)" 0.25445292620865
scalar BusLAN.host[0].pingApp[65] pingRxSeq:count 120
attr interpolationmode none
attr title "ping rx seq, count"
scalar BusLAN.host[0].pingApp[65] pingTxSeq:count 292
attr interpolationmode none
attr title "ping tx seq, count"
scalar BusLAN.host[0].pingApp[65] numOutOfOrderArrivals:last nan
attr interpolationmode none
attr title "ping out-of-order arrivals, last"
scalar BusLAN.host[0].pingApp[65] numLost:last 216
attr interpolationmode none
attr title "pings lost, last"
scalar BusLAN.host[0].pingApp[65] rtt:mean 0.009185122997881
attr interpolationmode none
attr title "ping round-trip time, mean"
attr unit s
scalar BusLAN.host[0].pingApp[66] "Pings sent" 387
scalar BusLAN.host[0].pingApp[66] "ping loss rate (%)" 52.97157622739
scalar BusLAN.host[0].pingApp[66] "ping out-of-order rate (%)" 0
scalar BusLAN.host[0].pingApp[66] pingRxSeq:count 136
attr interpolationmode none
attr title "ping rx seq, count"
scalar BusLAN.host[0].pingApp[66] pingTxSeq:count 293
attr interpolationmode none
attr title "ping tx seq, count"
scalar BusLAN.host[0].pingApp[66] numOutOfOrderArrivals:last nan
attr interpolationmode none
attr title "ping out-of-order arrivals, last"
scalar BusLAN.host[0].pingApp[66] numLost:last 200
attr interpolationmode none
attr title "pings lost, last"
scalar BusLAN.host[0].pingApp[66] rtt:mean 0.0098121886025664
attr interpolationmode none
attr title "ping round-trip time, mean"
attr unit s
scalar BusLAN.host[0].pingApp[67] "Pings sent" 384
scalar BusLAN.host[0].pingApp[67] "ping loss rate (%)" 56.510416666667
scalar BusLAN.host[0].pingApp[67] "ping out-of-order rate (%)" 0.26041666666667
scalar BusLAN.host[0].pingApp[67] pingRxSeq:count 130
attr interpolationmode none
attr title "ping rx seq, count"
scalar BusLAN.host[0].pingApp[67] pingTxSeq:count 291
attr interpolationmode none
attr title "ping tx seq, count"
scalar BusLAN.host[0].pingApp[67] numOutOfOrderArrivals:last 1
attr interpolationmode none
attr title "ping out-of-order arrivals, last"
scalar BusLAN.host[0].pingApp[67] numLost:last 215
attr interpolationmode none
attr title "pings lost, last"
scalar BusLAN.host[0].pingApp[67] rtt:mean 0.0091494133262
attr interpolationmode none
attr title "ping round-trip time, mean"
attr unit s
scalar BusLAN.host[0].pingApp[68] "Pings sent" 373
scalar BusLAN.host[0].pingApp[68] "ping loss rate (%)" 56.836461126005
scalar BusLAN.host[0].pingApp[68] "ping out-of-order rate (%)" 0
scalar BusLAN.host[0].pingApp[68] pingRxSeq:count 122
attr interpolationmode none
attr title "ping rx seq, count"
scalar BusLAN.host[0].pingApp[68] pingTxSeq:count 277
attr interpolationmode none
attr title "ping tx seq, count"
scalar BusLAN.host[0].pingApp[68] numOutOfOrderArrivals:last nan
attr interpolationmode none
attr title "ping out-of-order arrivals, last"
scalar BusLAN.host[0].pingApp[68] numLost:last 209
attr interpolationmode none
attr title "pings lost, last"
scalar BusLAN.host[0].pingApp[68] rtt:mean 0.0092663893731
attr interpolationmode none
attr title "ping round-trip time, mean"
attr unit s
scalar BusLAN.host[0].pingApp[69] "Pings sent" 397
scalar BusLAN.host[0].pingApp[69] "ping loss rate (%)" 56.171284634761
scalar BusLAN.host[0].pingApp[69] "ping out-of-order rate (%)" 0
scalar BusLAN.host[0].pingApp[69] pingRxSeq:count 130
attr interpolationmode none
attr title "ping rx seq, count"
scalar BusLAN.host[0].pingApp[69] pingTxSeq:count 299
attr interpolationmode none
attr title "ping tx seq, count"
scalar BusLAN.host[0].pingApp[69] numOutOfOrderArrivals:last nan
attr interpolationmode none
attr title "ping out-of-order arrivals, last"
scalar BusLAN.host[0].pingApp[69] numLost:last 223
attr interpolationmode none
attr title "pings lost, last"
scalar BusLAN.host[0].pingApp[69] rtt:mean 0.0095241325868191
attr interpolationmode none
attr title "ping round-trip time, mean"
attr unit s
scalar BusLAN.host[0].pingApp[70] "Pings sent" 370
scalar BusLAN.host[0].pingApp[70] "ping loss rate (%)" 59.189189189189
scalar BusLAN.host[0].pingApp[70] "ping out-of-order rate (%)" 0
scalar BusLAN.host[0].pingApp[70] pingRxSeq:count 112
attr interpolationmode none
attr title "ping rx seq, count"
scalar BusLAN.host[0].pingApp[70] pingTxSeq:count 281
attr interpolationmode none
attr title "ping tx seq, count"
scalar BusLAN.host[0].pingApp[70] numOutOfOrderArrivals:last nan
attr interpolationmode none
attr title "ping out-of-order arrivals, last"
scalar BusLAN.host[0].pingApp[70] numLost:last 218
attr interpolationmode none
attr title "pings lost, last"
scalar BusLAN.host[0].pingApp[70] rtt:mean 0.0098829679548929
attr interpolationmode none
attr title "ping round-trip time, mean"
attr unit s
scalar BusLAN.host[0].pingApp[71] "Pings sent" 387
scalar BusLAN.host[0].pingApp[71] "ping loss rate (%)" 57.622739018088
scalar BusLAN.host[0].pingApp[71] "ping out-of-order rate (%)" 0
scalar BusLAN.host[0].pingApp[71] pingRxSeq:count 121
attr interpolationmode none
attr title "ping rx seq, count"
scalar BusLAN.host[0].pingApp[71] pingTxSeq:count 292
attr interpolationmode none
attr title "ping tx seq, count"
scalar BusLAN.host[0].pingApp[71] numOutOfOrderArrivals:last nan
attr interpolationmode none
attr title "ping out-of-order arrivals, last"
scalar BusLAN.host[0].pingApp[71] numLost:last 221
attr interpolationmode none
attr title "pings lost, last"
scalar BusLAN.host[0].pingApp[71] rtt:mean 0.01017677921
attr interpolationmode none
attr title "ping round-trip time, mean"
attr unit s
scalar BusLAN.host[0].pingApp[72] "Pings sent" 402
scalar BusLAN.host[0].pingApp[72] "ping loss rate (%)" 56.716417910448
scalar BusLAN.host[0].pingApp[72] "ping out-of-order rate (%)" 0
scalar BusLAN.host[0].pingApp[72] pingRxSeq:count 131
attr interpolationmode none
attr title "ping rx seq, count"
scalar BusLAN.host[0].pingApp[72] pingTxSeq:count 300
attr interpolationmode none
attr title "ping tx seq, count"
scalar BusLAN.host[0].pingApp[72] numOutOfOrderArrivals:last nan
attr interpolationmode none
attr title "ping out-of-order arrivals, last"
scalar BusLAN.host[0].pingApp[72] numLost:last 227
attr interpolationmode none
attr title "pings lost, last"
scalar BusLAN.host[0].pingApp[72] rtt:mean 0.0091178050576061
attr interpolationmode none
attr title "ping round-trip time, mean"
attr unit s
scalar BusLAN.host[0].pingApp[73] "Pings sent" 394
scalar BusLAN.host[0].pingApp[73] "ping loss rate (%)" 56.345177664975
scalar BusLAN.host[0].pingApp[73] "ping out-of-order rate (%)" 0
scalar BusLAN.host[0].pingApp[73] pingRxSeq:count 131
attr interpolationmode none
attr title "ping rx seq, count"
scalar BusLAN.host[0].pingApp[73] pingTxSeq:count 302
attr interpolationmode none
attr title "ping tx seq, count"
scalar BusLAN.host[0].pingApp[73] numOutOfOrderArrivals:last nan
attr interpolationmode none
attr title "ping out-of-order arrivals, last"
scalar BusLAN.host[0].pingApp[73] numLost:last 222
attr interpolationmode none
attr title "pings lost, last"
scalar BusLAN.host[0].pingApp[73] rtt:mean 0.0091502929318381
attr interpolationmode none
attr title "ping round-trip time, mean"
attr unit s
scalar BusLAN.host[0].pingApp[74] "Pings sent" 370
scalar BusLAN.host[0].pingApp[74] "ping loss rate (%)" 54.594594594595
scalar BusLAN.host[0].pingApp[74] "ping out-of-order rate (%)" 0
scalar BusLAN.host[0].pingApp[74] pingRxSeq:count 129
attr interpolationmode none
attr title "ping rx seq, count"
scalar BusLAN.host[0].pingApp[74] pingTxSeq:count 282
attr interpolationmode none
attr title "ping tx seq, count"
scalar BusLAN.host[0].pingApp[74] numOutOfOrderArrivals:last nan
attr interpolationmode none
attr title "ping out-of-order arrivals, last"
scalar BusLAN.host[0].pingApp[74] numLost:last 201
attr interpolationmode none
attr title "pings lost, last"
scalar BusLAN.host[0].pingApp[74] rtt:mean 0.0094603836218269
attr interpolationmode none
attr title "ping round-trip time, mean"
attr unit s
scalar BusLAN.host[0].pingApp[75] "Pings sent" 396
scalar BusLAN.host[0].pingApp[75] "ping loss rate (%)" 54.292929292929
scalar BusLAN.host[0].pingApp[75] "ping out-of-order rate (%)" 0
scalar BusLAN.host[0].pingApp[75] pingRxSeq:count 138
attr interpolationmode none
attr title "ping rx seq, count"
scalar BusLAN.host[0].pingApp[75] pingTxSeq:count 304
attr interpolationmode none
attr title "ping tx seq, count"
scalar BusLAN.host[0].pingApp[75] numOutOfOrderArrivals:last nan
attr interpolationmode none
attr title "ping out-of-order arrivals, last"
scalar BusLAN.host[0].pingApp[75] numLost:last 212
attr interpolationmode none
attr title "pings lost, last"
scalar BusLAN.host[0].pingApp[75] rtt:mean 0.0091107239864019
attr interpolationmode none
attr title "ping round-trip time, mean"
attr unit s
scalar BusLAN.host[0].pingApp[76] "Pings sent" 389
scalar BusLAN.host[0].pingApp[76] "ping loss rate (%)" 55.012853470437
scalar BusLAN.host[0].pingApp[76] "ping out-of-order rate (%)" 0.25706940874036
scalar BusLAN.host[0].pingApp[76] pingRxSeq:count 134
attr interpolationmode none
attr title "ping rx seq, count"
scalar BusLAN.host[0].pingApp[76] pingTxSeq:count 292
attr interpolationmode none
attr title "ping tx seq, count"
scalar BusLAN.host[0].pingApp[76] numOutOfOrderArrivals:last 1
attr interpolationmode none
attr title "ping out-of-order arrivals, last"
scalar BusLAN.host[0].pingApp[76] numLost:last 214
attr interpolationmode none
attr title "pings lost, last"
scalar BusLAN.host[0].pingApp[76] rtt:mean 0.0094015577584712
attr interpolationmode none
attr title "ping round-trip time, mean"
attr unit s
scalar BusLAN.host[0].pingApp[77] "Pings sent" 382
scalar BusLAN.host[0].pingApp[77] "ping loss rate (%)" 61.780104712042
scalar BusLAN.host[0].pingApp[77] "ping out-of-order rate (%)" 0
scalar BusLAN.host[0].pingApp[77] pingRxSeq:count 113
attr interpolationmode none
attr title "ping rx seq, count"
scalar BusLAN.host[0].pingApp[77] pingTxSeq:count 291
attr interpolationmode none
attr title "ping tx seq, count"
scalar BusLAN.host[0].pingApp[77] numOutOfOrderArrivals:last nan
attr interpolationmode none
attr title "ping out-of-order arrivals, last"
scalar BusLAN.host[0].pingApp[77] numLost:last 232
attr interpolationmode none
attr title "pings lost, last"
scalar BusLAN.host[0].pingApp[77] rtt:mean 0.0092861335368158
attr interpolationmode none
attr title "ping round-trip time, mean"
attr unit s
scalar BusLAN.host[0].pingApp[78] "Pings sent" 378
scalar BusLAN.host[0].pingApp[78] "ping loss rate (%)" 59.259259259259
scalar BusLAN.host[0].pingApp[78] "ping out-of-order rate (%)" 0.26455026455026
scalar BusLAN.host[0].pingApp[78] pingRxSeq:count 121
attr interpolationmode none
attr title "ping rx seq, count"
scalar BusLAN.host[0].pingApp[78] pingTxSeq:count 287
attr interpolationmode none
attr title "ping tx seq, count"
scalar BusLAN.host[0].pingApp[78] numOutOfOrderArrivals:last 1
attr interpolationmode none
attr title "ping out-of-order arrivals, last"
scalar BusLAN.host[0].pingApp[78] numLost:last 224
attr interpolationmode none
attr title "pings lost, last"
scalar BusLAN.host[0].pingApp[78] rtt:mean 0.0089250199709773
attr interpolationmode none
attr title "ping round-trip time, mean"
attr unit s
scalar BusLAN.host[0].pingApp[79] "Pings sent" 396
scalar BusLAN.host[0].pingApp[79] "ping loss rate (%)" 59.090909090909
scalar BusLAN.host[0].pingApp[79] "ping out-of-order rate (%)" 0
scalar BusLAN.host[0].pingApp[79] pingRxSeq:count 130
attr interpolationmode none
attr title "ping rx seq, count"
scalar BusLAN.host[0].pingApp[79] pingTxSeq:count 310
attr interpolationmode none
attr title "ping tx seq, count"
scalar BusLAN.host[0].pingApp[79] numOutOfOrderArrivals:last nan
attr interpolationmode none
attr title "ping out-of-order arrivals, last"
scalar BusLAN.host[0].pingApp[79] numLost:last 234
attr interpolationmode none
attr title "pings lost, last"
scalar BusLAN.host[0].pingApp[79] rtt:mean 0.0092247600984681
attr interpolationmode none
attr title "ping round-trip time, mean"
attr unit s
scalar BusLAN.host[0].pingApp[80] "Pings sent" 381
scalar BusLAN.host[0].pingApp[80] "ping loss rate (%)" 58.792650918635
scalar BusLAN.host[0].pingApp[80] "ping out-of-order rate (%)" 0.5249343832021
scalar BusLAN.host[0].pingApp[80] pingRxSeq:count 113
attr interpolationmode none
attr title "ping rx seq, count"
scalar BusLAN.host[0].pingApp[80] pingTxSeq:count 286
attr interpolationmode none
attr title "ping tx seq, count"
scalar BusLAN.host[0].pingApp[80] numOutOfOrderArrivals:last 2
attr interpolationmode none
attr title "ping out-of-order arrivals, last"
scalar BusLAN.host[0].pingApp[80] numLost:last 223
attr interpolationmode none
attr title "pings lost, last"
scalar BusLAN.host[0].pingApp[80] rtt:mean 0.0088183295071304
attr interpolationmode none
attr title "ping round-trip time, mean"
attr unit s
scalar BusLAN.host[0].pingApp[81] "Pings sent" 398
scalar BusLAN.host[0].pingApp[81] "ping loss rate (%)" 53.768844221106
scalar BusLAN.host[0].pingApp[81] "ping out-of-order rate (%)" 0
scalar BusLAN.host[0].pingApp[81] pingRxSeq:count 138
attr interpolationmode none
attr title "ping rx seq, count"
scalar BusLAN.host[0].pingApp[81] pingTxSeq:count 297
attr interpolationmode none
attr title "ping tx seq, count"
scalar BusLAN.host[0].pingApp[81] numOutOfOrderArrivals:last nan
attr interpolationmode none
attr title "ping out-of-order arrivals, last"
scalar BusLAN.host[0].pingApp[81] numLost:last 212
attr interpolationmode none
attr title "pings lost, last"
scalar BusLAN.host[0].pingApp[81] rtt:mean 0.0099049658882336
attr interpolationmode none
attr title "ping round-trip time, mean"
attr unit s
scalar BusLAN.host[0].pingApp[82] "Pings sent" 383
scalar BusLAN.host[0].pingApp[82] "ping loss rate (%)" 57.441253263708
scalar BusLAN.host[0].pingApp[82] "ping out-of-order rate (%)" 0.26109660574413
scalar BusLAN.host[0].pingApp[82] pingRxSeq:count 119
attr interpolationmode none
attr title "ping rx seq, count"
scalar BusLAN.host[0].pingApp[82] pingTxSeq:count 286
attr interpolationmode none
attr title "ping tx seq, count"
scalar BusLAN.host[0].pingApp[82] numOutOfOrderArrivals:last 1
attr interpolationmode none
attr title "ping out-of-order arrivals, last"
scalar BusLAN.host[0].pingApp[82] numLost:last 220
attr interpolationmode none
attr title "pings lost, last"
scalar BusLAN.host[0].pingApp[82] rtt:mean 0.0095159696099583
attr interpolationmode none
attr title "ping round-trip time, mean"
attr unit s
scalar BusLAN.host[0].pingApp[83] "Pings sent" 382
scalar BusLAN.host[0].pingApp[83] "ping loss rate (%)" 57.068062827225
scalar BusLAN.host[0].pingApp[83] "ping out-of-order rate (%)" 0
scalar BusLAN.host[0].pingApp[83] pingRxSeq:count 129
attr interpolationmode none
attr title "ping rx seq, count"
scalar BusLAN.host[0].pingApp[83] pingTxSeq:count 292
attr interpolationmode none
attr title "ping tx seq, count"
scalar BusLAN.host[0].pingApp[83] numOutOfOrderArrivals:last nan
attr interpolationmode none
attr title "ping out-of-order arrivals, last"
scalar BusLAN.host[0].pingApp[83] numLost:last 217
attr interpolationmode none
attr title "pings lost, last"
scalar BusLAN.host[0].pingApp[83] rtt:mean 0.0093279114370105
attr interpolationmode none
attr title "ping round-trip time, mean"
attr unit s
scalar BusLAN.host[0].pingApp[84] "Pings sent" 380
scalar BusLAN.host[0].pingApp[84] "ping loss rate (%)" 60.263157894737
scalar BusLAN.host[0].pingApp[84] "ping out-of-order rate (%)" 0.26315789473684
scalar BusLAN.host[0].pingApp[84] pingRxSeq:count 114
attr interpolationmode none
attr title "ping rx seq, count"
scalar BusLAN.host[0].pingApp[84] pingTxSeq:count 291
attr interpolationmode none
attr title "ping tx seq, count"
scalar BusLAN.host[0].pingApp[84] numOutOfOrderArrivals:last nan
attr interpolationmode none
attr title "ping out-of-order arrivals, last"
scalar BusLAN.host[0].pingApp[84] numLost:last 229
attr interpolationmode none
attr title "pings lost, last"
scalar BusLAN.host[0].pingApp[84] rtt:mean 0.009273092363907
attr interpolationmode none
attr title "ping round-trip time, mean"
attr unit s
scalar BusLAN.host[0].pingApp[85] "Pings sent" 382
scalar BusLAN.host[0].pingApp[85] "ping loss rate (%)" 55.497382198953
scalar BusLAN.host[0].pingApp[85] "ping out-of-order rate (%)" 0
scalar BusLAN.host[0].pingApp[85] pingRxSeq:count 127
attr interpolationmode none
attr title "ping rx seq, count"
scalar BusLAN.host[0].pingApp[85] pingTxSeq:count 291
attr interpolationmode none
attr title "ping tx seq, count"
scalar BusLAN.host[0].pingApp[85] numOutOfOrderArrivals:last nan
attr interpolationmode none
attr title "ping out-of-order arrivals, last"
scalar BusLAN.host[0].pingApp[85] numLost:last 210
attr interpolationmode none
attr title "pings lost, last"
scalar BusLAN.host[0].pingApp[85] rtt:mean 0.0096733681969592
attr interpolationmode none
attr title "ping round-trip time, mean"
attr unit s
scalar BusLAN.host[0].pingApp[86] "Pings sent" 391
[...]
attr interpolationmode none
attr title "pings lost, last"
scalar BusLAN.host[9].pingApp[101] rtt:mean 0.0095898872798611
attr interpolationmode none
attr title "ping round-trip time, mean"
attr unit s
scalar BusLAN.host[9].pingApp[102] "Pings sent" 386
scalar BusLAN.host[9].pingApp[102] "ping loss rate (%)" 59.067357512953
scalar BusLAN.host[9].pingApp[102] "ping out-of-order rate (%)" 0
scalar BusLAN.host[9].pingApp[102] pingRxSeq:count 114
attr interpolationmode none
attr title "ping rx seq, count"
scalar BusLAN.host[9].pingApp[102] pingTxSeq:count 283
attr interpolationmode none
attr title "ping tx seq, count"
scalar BusLAN.host[9].pingApp[102] numOutOfOrderArrivals:last nan
attr interpolationmode none
attr title "ping out-of-order arrivals, last"
scalar BusLAN.host[9].pingApp[102] numLost:last 228
attr interpolationmode none
attr title "pings lost, last"
scalar BusLAN.host[9].pingApp[102] rtt:mean 0.0092582660419091
attr interpolationmode none
attr title "ping round-trip time, mean"
attr unit s
scalar BusLAN.host[9].pingApp[103] "Pings sent" 386
scalar BusLAN.host[9].pingApp[103] "ping loss rate (%)" 57.512953367876
scalar BusLAN.host[9].pingApp[103] "ping out-of-order rate (%)" 0.25906735751295
scalar BusLAN.host[9].pingApp[103] pingRxSeq:count 127
attr interpolationmode none
attr title "ping rx seq, count"
scalar BusLAN.host[9].pingApp[103] pingTxSeq:count 291
attr interpolationmode none
attr title "ping tx seq, count"
scalar BusLAN.host[9].pingApp[103] numOutOfOrderArrivals:last 1
attr interpolationmode none
attr title "ping out-of-order arrivals, last"
scalar BusLAN.host[9].pingApp[103] numLost:last 222
attr interpolationmode none
attr title "pings lost, last"
scalar BusLAN.host[9].pingApp[103] rtt:mean 0.0095791351725192
attr interpolationmode none
attr title "ping round-trip time, mean"
attr unit s
scalar BusLAN.host[9].pingApp[104] "Pings sent" 366
scalar BusLAN.host[9].pingApp[104] "ping loss rate (%)" 57.92349726776
scalar BusLAN.host[9].pingApp[104] "ping out-of-order rate (%)" 0.27322404371585
scalar BusLAN.host[9].pingApp[104] pingRxSeq:count 110
attr interpolationmode none
attr title "ping rx seq, count"
scalar BusLAN.host[9].pingApp[104] pingTxSeq:count 275
attr interpolationmode none
attr title "ping tx seq, count"
scalar BusLAN.host[9].pingApp[104] numOutOfOrderArrivals:last nan
attr interpolationmode none
attr title "ping out-of-order arrivals, last"
scalar BusLAN.host[9].pingApp[104] numLost:last 210
attr interpolationmode none
attr title "pings lost, last"
scalar BusLAN.host[9].pingApp[104] rtt:mean 0.0099394496195443
attr interpolationmode none
attr title "ping round-trip time, mean"
attr unit s
scalar BusLAN.host[9].pingApp[105] "Pings sent" 387
scalar BusLAN.host[9].pingApp[105] "ping loss rate (%)" 59.173126614987
scalar BusLAN.host[9].pingApp[105] "ping out-of-order rate (%)" 0.25839793281654
scalar BusLAN.host[9].pingApp[105] pingRxSeq:count 121
attr interpolationmode none
attr title "ping rx seq, count"
scalar BusLAN.host[9].pingApp[105] pingTxSeq:count 297
attr interpolationmode none
attr title "ping tx seq, count"
scalar BusLAN.host[9].pingApp[105] numOutOfOrderArrivals:last 1
attr interpolationmode none
attr title "ping out-of-order arrivals, last"
scalar BusLAN.host[9].pingApp[105] numLost:last 226
attr interpolationmode none
attr title "pings lost, last"
scalar BusLAN.host[9].pingApp[105] rtt:mean 0.0087172250120426
attr interpolationmode none
attr title "ping round-trip time, mean"
attr unit s
scalar BusLAN.host[9].pingApp[106] "Pings sent" 380
scalar BusLAN.host[9].pingApp[106] "ping loss rate (%)" 57.105263157895
scalar BusLAN.host[9].pingApp[106] "ping out-of-order rate (%)" 0
scalar BusLAN.host[9].pingApp[106] pingRxSeq:count 123
attr interpolationmode none
attr title "ping rx seq, count"
scalar BusLAN.host[9].pingApp[106] pingTxSeq:count 286
attr interpolationmode none
attr title "ping tx seq, count"
scalar BusLAN.host[9].pingApp[106] numOutOfOrderArrivals:last nan
attr interpolationmode none
attr title "ping out-of-order arrivals, last"
scalar BusLAN.host[9].pingApp[106] numLost:last 217
attr interpolationmode none
attr title "pings lost, last"
scalar BusLAN.host[9].pingApp[106] rtt:mean 0.0094547202574211
attr interpolationmode none
attr title "ping round-trip time, mean"
attr unit s
scalar BusLAN.host[9].pingApp[107] "Pings sent" 397
scalar BusLAN.host[9].pingApp[107] "ping loss rate (%)" 56.171284634761
scalar BusLAN.host[9].pingApp[107] "ping out-of-order rate (%)" 0.25188916876574
scalar BusLAN.host[9].pingApp[107] pingRxSeq:count 128
attr interpolationmode none
attr title "ping rx seq, count"
scalar BusLAN.host[9].pingApp[107] pingTxSeq:count 299
attr interpolationmode none
attr title "ping tx seq, count"
scalar BusLAN.host[9].pingApp[107] numOutOfOrderArrivals:last nan
attr interpolationmode none
attr title "ping out-of-order arrivals, last"
scalar BusLAN.host[9].pingApp[107] numLost:last 223
attr interpolationmode none
attr title "pings lost, last"
scalar BusLAN.host[9].pingApp[107] rtt:mean 0.010126184125699
attr interpolationmode none
attr title "ping round-trip time, mean"
attr unit s
scalar BusLAN.host[9].pingApp[108] "Pings sent" 376
scalar BusLAN.host[9].pingApp[108] "ping loss rate (%)" 60.106382978723
scalar BusLAN.host[9].pingApp[108] "ping out-of-order rate (%)" 0.26595744680851
scalar BusLAN.host[9].pingApp[108] pingRxSeq:count 119
attr interpolationmode none
attr title "ping rx seq, count"
scalar BusLAN.host[9].pingApp[108] pingTxSeq:count 286
attr interpolationmode none
attr title "ping tx seq, count"
scalar BusLAN.host[9].pingApp[108] numOutOfOrderArrivals:last 1
attr interpolationmode none
attr title "ping out-of-order arrivals, last"
scalar BusLAN.host[9].pingApp[108] numLost:last 224
attr interpolationmode none
attr title "pings lost, last"
scalar BusLAN.host[9].pingApp[108] rtt:mean 0.0089102458440899
attr interpolationmode none
attr title "ping round-trip time, mean"
attr unit s
scalar BusLAN.host[9].pingApp[109] "Pings sent" 388
scalar BusLAN.host[9].pingApp[109] "ping loss rate (%)" 54.381443298969
scalar BusLAN.host[9].pingApp[109] "ping out-of-order rate (%)" 0.25773195876289
scalar BusLAN.host[9].pingApp[109] pingRxSeq:count 134
attr interpolationmode none
attr title "ping rx seq, count"
scalar BusLAN.host[9].pingApp[109] pingTxSeq:count 290
attr interpolationmode none
attr title "ping tx seq, count"
scalar BusLAN.host[9].pingApp[109] numOutOfOrderArrivals:last nan
attr interpolationmode none
attr title "ping out-of-order arrivals, last"
scalar BusLAN.host[9].pingApp[109] numLost:last 210
attr interpolationmode none
attr title "pings lost, last"
scalar BusLAN.host[9].pingApp[109] rtt:mean 0.0093773298920734
attr interpolationmode none
attr title "ping round-trip time, mean"
attr unit s
scalar BusLAN.host[9].pingApp[110] "Pings sent" 392
scalar BusLAN.host[9].pingApp[110] "ping loss rate (%)" 54.84693877551
scalar BusLAN.host[9].pingApp[110] "ping out-of-order rate (%)" 0
scalar BusLAN.host[9].pingApp[110] pingRxSeq:count 145
attr interpolationmode none
attr title "ping rx seq, count"
scalar BusLAN.host[9].pingApp[110] pingTxSeq:count 299
attr interpolationmode none
attr title "ping tx seq, count"
scalar BusLAN.host[9].pingApp[110] numOutOfOrderArrivals:last nan
attr interpolationmode none
attr title "ping out-of-order arrivals, last"
scalar BusLAN.host[9].pingApp[110] numLost:last 211
attr interpolationmode none
attr title "pings lost, last"
scalar BusLAN.host[9].pingApp[110] rtt:mean 0.0097686643411389
attr interpolationmode none
attr title "ping round-trip time, mean"
attr unit s
scalar BusLAN.host[9].pingApp[111] "Pings sent" 391
scalar BusLAN.host[9].pingApp[111] "ping loss rate (%)" 56.521739130435
scalar BusLAN.host[9].pingApp[111] "ping out-of-order rate (%)" 0.25575447570332
scalar BusLAN.host[9].pingApp[111] pingRxSeq:count 125
attr interpolationmode none
attr title "ping rx seq, count"
scalar BusLAN.host[9].pingApp[111] pingTxSeq:count 296
attr interpolationmode none
attr title "ping tx seq, count"
scalar BusLAN.host[9].pingApp[111] numOutOfOrderArrivals:last nan
attr interpolationmode none
attr title "ping out-of-order arrivals, last"
scalar BusLAN.host[9].pingApp[111] numLost:last 221
attr interpolationmode none
attr title "pings lost, last"
scalar BusLAN.host[9].pingApp[111] rtt:mean 0.0092174309969896
attr interpolationmode none
attr title "ping round-trip time, mean"
attr unit s
scalar BusLAN.host[9].pingApp[112] "Pings sent" 384
scalar BusLAN.host[9].pingApp[112] "ping loss rate (%)" 54.166666666667
scalar BusLAN.host[9].pingApp[112] "ping out-of-order rate (%)" 0
scalar BusLAN.host[9].pingApp[112] pingRxSeq:count 133
attr interpolationmode none
attr title "ping rx seq, count"
scalar BusLAN.host[9].pingApp[112] pingTxSeq:count 287
attr interpolationmode none
attr title "ping tx seq, count"
scalar BusLAN.host[9].pingApp[112] numOutOfOrderArrivals:last nan
attr interpolationmode none
attr title "ping out-of-order arrivals, last"
scalar BusLAN.host[9].pingApp[112] numLost:last 208
attr interpolationmode none
attr title "pings lost, last"
scalar BusLAN.host[9].pingApp[112] rtt:mean 0.0088186811856512
attr interpolationmode none
attr title "ping round-trip time, mean"
attr unit s
scalar BusLAN.host[9].pingApp[113] "Pings sent" 381
scalar BusLAN.host[9].pingApp[113] "ping loss rate (%)" 58.267716535433
scalar BusLAN.host[9].pingApp[113] "ping out-of-order rate (%)" 0
scalar BusLAN.host[9].pingApp[113] pingRxSeq:count 119
attr interpolationmode none
attr title "ping rx seq, count"
scalar BusLAN.host[9].pingApp[113] pingTxSeq:count 291
attr interpolationmode none
attr title "ping tx seq, count"
scalar BusLAN.host[9].pingApp[113] numOutOfOrderArrivals:last nan
attr interpolationmode none
attr title "ping out-of-order arrivals, last"
scalar BusLAN.host[9].pingApp[113] numLost:last 222
attr interpolationmode none
attr title "pings lost, last"
scalar BusLAN.host[9].pingApp[113] rtt:mean 0.0090283054986304
attr interpolationmode none
attr title "ping round-trip time, mean"
attr unit s
scalar BusLAN.host[9].pingApp[114] "Pings sent" 364
scalar BusLAN.host[9].pingApp[114] "ping loss rate (%)" 60.43956043956
scalar BusLAN.host[9].pingApp[114] "ping out-of-order rate (%)" 0
scalar BusLAN.host[9].pingApp[114] pingRxSeq:count 112
attr interpolationmode none
attr title "ping rx seq, count"
scalar BusLAN.host[9].pingApp[114] pingTxSeq:count 280
attr interpolationmode none
attr title "ping tx seq, count"
scalar BusLAN.host[9].pingApp[114] numOutOfOrderArrivals:last nan
attr interpolationmode none
attr title "ping out-of-order arrivals, last"
scalar BusLAN.host[9].pingApp[114] numLost:last 219
attr interpolationmode none
attr title "pings lost, last"
scalar BusLAN.host[9].pingApp[114] rtt:mean 0.0094335146918889
attr interpolationmode none
attr title "ping round-trip time, mean"
attr unit s
scalar BusLAN.host[9].pingApp[115] "Pings sent" 380
scalar BusLAN.host[9].pingApp[115] "ping loss rate (%)" 56.315789473684
scalar BusLAN.host[9].pingApp[115] "ping out-of-order rate (%)" 0
scalar BusLAN.host[9].pingApp[115] pingRxSeq:count 127
attr interpolationmode none
attr title "ping rx seq, count"
scalar BusLAN.host[9].pingApp[115] pingTxSeq:count 286
attr interpolationmode none
attr title "ping tx seq, count"
scalar BusLAN.host[9].pingApp[115] numOutOfOrderArrivals:last nan
attr interpolationmode none
attr title "ping out-of-order arrivals, last"
scalar BusLAN.host[9].pingApp[115] numLost:last 214
attr interpolationmode none
attr title "pings lost, last"
scalar BusLAN.host[9].pingApp[115] rtt:mean 0.0095583730446316
attr interpolationmode none
attr title "ping round-trip time, mean"
attr unit s
scalar BusLAN.host[9].pingApp[116] "Pings sent" 393
scalar BusLAN.host[9].pingApp[116] "ping loss rate (%)" 56.234096692112
scalar BusLAN.host[9].pingApp[116] "ping out-of-order rate (%)" 0
scalar BusLAN.host[9].pingApp[116] pingRxSeq:count 123
attr interpolationmode none
attr title "ping rx seq, count"
scalar BusLAN.host[9].pingApp[116] pingTxSeq:count 289
attr interpolationmode none
attr title "ping tx seq, count"
scalar BusLAN.host[9].pingApp[116] numOutOfOrderArrivals:last nan
attr interpolationmode none
attr title "ping out-of-order arrivals, last"
scalar BusLAN.host[9].pingApp[116] numLost:last 221
attr interpolationmode none
attr title "pings lost, last"
scalar BusLAN.host[9].pingApp[116] rtt:mean 0.0093524095907253
attr interpolationmode none
attr title "ping round-trip time, mean"
attr unit s
scalar BusLAN.host[9].pingApp[117] "Pings sent" 387
scalar BusLAN.host[9].pingApp[117] "ping loss rate (%)" 50.129198966408
scalar BusLAN.host[9].pingApp[117] "ping out-of-order rate (%)" 0
scalar BusLAN.host[9].pingApp[117] pingRxSeq:count 138
attr interpolationmode none
attr title "ping rx seq, count"
scalar BusLAN.host[9].pingApp[117] pingTxSeq:count 283
attr interpolationmode none
attr title "ping tx seq, count"
scalar BusLAN.host[9].pingApp[117] numOutOfOrderArrivals:last nan
attr interpolationmode none
attr title "ping out-of-order arrivals, last"
scalar BusLAN.host[9].pingApp[117] numLost:last 194
attr interpolationmode none
attr title "pings lost, last"
scalar BusLAN.host[9].pingApp[117] rtt:mean 0.0089003923723107
attr interpolationmode none
attr title "ping round-trip time, mean"
attr unit s
scalar BusLAN.host[9].pingApp[118] "Pings sent" 405
scalar BusLAN.host[9].pingApp[118] "ping loss rate (%)" 54.567901234568
scalar BusLAN.host[9].pingApp[118] "ping out-of-order rate (%)" 0.24691358024691
scalar BusLAN.host[9].pingApp[118] pingRxSeq:count 143
attr interpolationmode none
attr title "ping rx seq, count"
scalar BusLAN.host[9].pingApp[118] pingTxSeq:count 308
attr interpolationmode none
attr title "ping tx seq, count"
scalar BusLAN.host[9].pingApp[118] numOutOfOrderArrivals:last 1
attr interpolationmode none
attr title "ping out-of-order arrivals, last"
scalar BusLAN.host[9].pingApp[118] numLost:last 221
attr interpolationmode none
attr title "pings lost, last"
scalar BusLAN.host[9].pingApp[118] rtt:mean 0.009848128316098
attr interpolationmode none
attr title "ping round-trip time, mean"
attr unit s
scalar BusLAN.host[9].pingApp[119] "Pings sent" 384
scalar BusLAN.host[9].pingApp[119] "ping loss rate (%)" 57.291666666667
scalar BusLAN.host[9].pingApp[119] "ping out-of-order rate (%)" 0
scalar BusLAN.host[9].pingApp[119] pingRxSeq:count 130
attr interpolationmode none
attr title "ping rx seq, count"
scalar BusLAN.host[9].pingApp[119] pingTxSeq:count 294
attr interpolationmode none
attr title "ping tx seq, count"
scalar BusLAN.host[9].pingApp[119] numOutOfOrderArrivals:last nan
attr interpolationmode none
attr title "ping out-of-order arrivals, last"
scalar BusLAN.host[9].pingApp[119] numLost:last 220
attr interpolationmode none
attr title "pings lost, last"
scalar BusLAN.host[9].pingApp[119] rtt:mean 0.0091937696455437
attr interpolationmode none
attr title "ping round-trip time, mean"
attr unit s
scalar BusLAN.host[9].pingApp[120] "Pings sent" 371
scalar BusLAN.host[9].pingApp[120] "ping loss rate (%)" 60.646900269542
scalar BusLAN.host[9].pingApp[120] "ping out-of-order rate (%)" 0
scalar BusLAN.host[9].pingApp[120] pingRxSeq:count 110
attr interpolationmode none
attr title "ping rx seq, count"
scalar BusLAN.host[9].pingApp[120] pingTxSeq:count 285
attr interpolationmode none
attr title "ping tx seq, count"
scalar BusLAN.host[9].pingApp[120] numOutOfOrderArrivals:last nan
attr interpolationmode none
attr title "ping out-of-order arrivals, last"
scalar BusLAN.host[9].pingApp[120] numLost:last 220
attr interpolationmode none
attr title "pings lost, last"
scalar BusLAN.host[9].pingApp[120] rtt:mean 0.0091063437719733
attr interpolationmode none
attr title "ping round-trip time, mean"
attr unit s
scalar BusLAN.host[9].pingApp[121] "Pings sent" 369
scalar BusLAN.host[9].pingApp[121] "ping loss rate (%)" 54.471544715447
scalar BusLAN.host[9].pingApp[121] "ping out-of-order rate (%)" 0.2710027100271
scalar BusLAN.host[9].pingApp[121] pingRxSeq:count 120
attr interpolationmode none
attr title "ping rx seq, count"
scalar BusLAN.host[9].pingApp[121] pingTxSeq:count 276
attr interpolationmode none
attr title "ping tx seq, count"
scalar BusLAN.host[9].pingApp[121] numOutOfOrderArrivals:last 1
attr interpolationmode none
attr title "ping out-of-order arrivals, last"
scalar BusLAN.host[9].pingApp[121] numLost:last 201
attr interpolationmode none
attr title "pings lost, last"
scalar BusLAN.host[9].pingApp[121] rtt:mean 0.0098266661552529
attr interpolationmode none
attr title "ping round-trip time, mean"
attr unit s
scalar BusLAN.host[9].pingApp[122] "Pings sent" 376
scalar BusLAN.host[9].pingApp[122] "ping loss rate (%)" 56.914893617021
scalar BusLAN.host[9].pingApp[122] "ping out-of-order rate (%)" 0
scalar BusLAN.host[9].pingApp[122] pingRxSeq:count 116
attr interpolationmode none
attr title "ping rx seq, count"
scalar BusLAN.host[9].pingApp[122] pingTxSeq:count 288
attr interpolationmode none
attr title "ping tx seq, count"
scalar BusLAN.host[9].pingApp[122] numOutOfOrderArrivals:last nan
attr interpolationmode none
attr title "ping out-of-order arrivals, last"
scalar BusLAN.host[9].pingApp[122] numLost:last 212
attr interpolationmode none
attr title "pings lost, last"
scalar BusLAN.host[9].pingApp[122] rtt:mean 0.0096493150644731
attr interpolationmode none
attr title "ping round-trip time, mean"
attr unit s
scalar BusLAN.host[9].pingApp[123] "Pings sent" 398
scalar BusLAN.host[9].pingApp[123] "ping loss rate (%)" 53.768844221106
scalar BusLAN.host[9].pingApp[123] "ping out-of-order rate (%)" 0.25125628140704
scalar BusLAN.host[9].pingApp[123] pingRxSeq:count 142
attr interpolationmode none
attr title "ping rx seq, count"
scalar BusLAN.host[9].pingApp[123] pingTxSeq:count 311
attr interpolationmode none
attr title "ping tx seq, count"
scalar BusLAN.host[9].pingApp[123] numOutOfOrderArrivals:last 1
attr interpolationmode none
attr title "ping out-of-order arrivals, last"
scalar BusLAN.host[9].pingApp[123] numLost:last 214
attr interpolationmode none
attr title "pings lost, last"
scalar BusLAN.host[9].pingApp[123] rtt:mean 0.0097461479592264
attr interpolationmode none
attr title "ping round-trip time, mean"
attr unit s
scalar BusLAN.host[9].pingApp[124] "Pings sent" 380
scalar BusLAN.host[9].pingApp[124] "ping loss rate (%)" 54.473684210526
scalar BusLAN.host[9].pingApp[124] "ping out-of-order rate (%)" 0
scalar BusLAN.host[9].pingApp[124] pingRxSeq:count 129
attr interpolationmode none
attr title "ping rx seq, count"
scalar BusLAN.host[9].pingApp[124] pingTxSeq:count 287
attr interpolationmode none
attr title "ping tx seq, count"
scalar BusLAN.host[9].pingApp[124] numOutOfOrderArrivals:last nan
attr interpolationmode none
attr title "ping out-of-order arrivals, last"
scalar BusLAN.host[9].pingApp[124] numLost:last 206
attr interpolationmode none
attr title "pings lost, last"
scalar BusLAN.host[9].pingApp[124] rtt:mean 0.0095011587842828
attr interpolationmode none
attr title "ping round-trip time, mean"
attr unit s
scalar BusLAN.host[9].pingApp[125] "Pings sent" 392
scalar BusLAN.host[9].pingApp[125] "ping loss rate (%)" 57.908163265306
scalar BusLAN.host[9].pingApp[125] "ping out-of-order rate (%)" 0
scalar BusLAN.host[9].pingApp[125] pingRxSeq:count 131
attr interpolationmode none
attr title "ping rx seq, count"
scalar BusLAN.host[9].pingApp[125] pingTxSeq:count 292
attr interpolationmode none
attr title "ping tx seq, count"
scalar BusLAN.host[9].pingApp[125] numOutOfOrderArrivals:last nan
attr interpolationmode none
attr title "ping out-of-order arrivals, last"
scalar BusLAN.host[9].pingApp[125] numLost:last 227
attr interpolationmode none
attr title "pings lost, last"
scalar BusLAN.host[9].pingApp[125] rtt:mean 0.0095039234574857
attr interpolationmode none
attr title "ping round-trip time, mean"
attr unit s
scalar BusLAN.bus "simulated time" 20
scalar BusLAN.bus "messages handled" 0
scalar BusLAN.bus messages/sec 0

