version 2
run BusLAN10-sendinterval-0-20180110-20:26:00-12408
attr configname BusLAN10-sendinterval
attr datetime 20180110-20:26:00
attr experiment BusLAN10-sendinterval
attr inifile BusLAN.ini
attr iterationvars $pa=2
attr iterationvarsf pa=2-
attr measurement $pa=2
attr network BusLAN
attr processid 12408
attr repetition 0
attr replication #0
attr resultdir results
attr runnumber 0
attr seedset 0
itervar pa 2
param *.numHosts 10
param **.datarate 10Mbps
param **.host[*].pingApp[*].sendInterval "truncnormal(100ms, 50ms)"
param **.host[*].pingApp[*].packetSize "truncnormal(1024B, 512B)"
param **.queueType "\"DropTailQueue\""
param **.frameCapacity 10
param **.mtu 1024B
param **.host[*].numPingApps 2
param **.host[*].pingApp[*].typename "\"PingApp\""
param **.host[*].pingApp[*].count 1
param **.host[*].pingApp[*].startTime "truncnormal(200ms, 100ms)"
param **.host[*].pingApp[*].destAddr "\"*\""

scalar BusLAN.host[0].networkLayer.arp sentReply:count 0
attr title "ARP replies sent, count"
scalar BusLAN.host[0].networkLayer.arp sentReq:count 0
attr title "ARP request sent, count"
scalar BusLAN.host[0].networkLayer.arp failedARPResolution:count 0
attr title "ARP failed resolutions, count"
scalar BusLAN.host[0].networkLayer.arp completedARPResolution:count 0
attr title "ARP completed resolutions, count"
scalar BusLAN.host[0].networkLayer.arp initiatedARPResolution:count 0
attr title "ARP initiated resolutions, count"
scalar BusLAN.host[0].lo0.lo droppedPkBitError:count 0
attr interpolationmode none
attr source dropPkBitError
attr title "packets dropped/bit error, count"
scalar BusLAN.host[0].lo0.lo droppedPkBitError:sum(packetBytes) 0
attr interpolationmode none
attr source dropPkBitError
attr title "packets dropped/bit error, sum(packetBytes)"
scalar BusLAN.host[0].lo0.lo rcvdPkFromHL:count 80
attr interpolationmode none
attr source packetReceivedFromUpper
attr title "packets received from higher layer, count"
scalar BusLAN.host[0].lo0.lo rcvdPkFromHL:sum(packetBytes) 53544
attr interpolationmode none
attr source packetReceivedFromUpper
attr title "packets received from higher layer, sum(packetBytes)"
scalar BusLAN.host[0].lo0.lo passedUpPk:count 80
attr interpolationmode none
attr source packetSentToUpper
attr title "packets passed to higher layer, count"
scalar BusLAN.host[0].lo0.lo passedUpPk:sum(packetBytes) 53544
attr interpolationmode none
attr source packetSentToUpper
attr title "packets passed to higher layer, sum(packetBytes)"
scalar BusLAN.host[0].eth[0].queue.pauseQueue queueLength:max nan
attr interpolationmode sample-hold
attr title "queue length, max"
scalar BusLAN.host[0].eth[0].queue.pauseQueue queueLength:timeavg nan
attr interpolationmode sample-hold
attr title "queue length, timeavg"
statistic BusLAN.host[0].eth[0].queue.pauseQueue queueingTime:histogram
field count 0
field mean nan
field stddev nan
field min nan
field max nan
field sum 0
field sqrsum 0
attr interpolationmode none
attr title "queueing time, histogram"
bin	-inf	0
bin	-0.5	0
bin	-0.46666666666667	0
bin	-0.43333333333333	0
bin	-0.4	0
bin	-0.36666666666667	0
bin	-0.33333333333333	0
bin	-0.3	0
bin	-0.26666666666667	0
bin	-0.23333333333333	0
bin	-0.2	0
bin	-0.16666666666667	0
bin	-0.13333333333333	0
bin	-0.1	0
bin	-0.066666666666667	0
bin	-0.033333333333333	0
bin	0	0
bin	0.033333333333333	0
bin	0.066666666666667	0
bin	0.1	0
bin	0.13333333333333	0
bin	0.16666666666667	0
bin	0.2	0
bin	0.23333333333333	0
bin	0.26666666666667	0
bin	0.3	0
bin	0.33333333333333	0
bin	0.36666666666667	0
bin	0.4	0
bin	0.43333333333333	0
bin	0.46666666666667	0
bin	0.5	0
scalar BusLAN.host[0].eth[0].queue.pauseQueue dropPk:count 0
attr interpolationmode none
attr source dropPkByQueue
attr title "dropped packets, count"
scalar BusLAN.host[0].eth[0].queue.pauseQueue dropPk:sum(packetBytes) 0
attr interpolationmode none
attr source dropPkByQueue
attr title "dropped packets, sum(packetBytes)"
scalar BusLAN.host[0].eth[0].queue.pauseQueue rcvdPk:count 0
attr interpolationmode none
attr title "received packets, count"
scalar BusLAN.host[0].eth[0].queue.pauseQueue rcvdPk:sum(packetBytes) 0
attr interpolationmode none
attr title "received packets, sum(packetBytes)"
scalar BusLAN.host[0].eth[0].queue.dataQueue queueLength:max 3
attr interpolationmode sample-hold
attr title "queue length, max"
scalar BusLAN.host[0].eth[0].queue.dataQueue queueLength:timeavg 0.011649217030024
attr interpolationmode sample-hold
attr title "queue length, timeavg"
statistic BusLAN.host[0].eth[0].queue.dataQueue queueingTime:histogram
field count 700
field mean 0.00024962349396571
field stddev 0.00039144143987785
field min 0
field max 0.002043092019
field sum 0.174736445776
field sqrsum 0.00015072357631445
attr interpolationmode none
attr title "queueing time, histogram"
bin	-inf	0
bin	-0.0004973898125	0
bin	-0.00043107117083333	0
bin	-0.00036475252916667	0
bin	-0.0002984338875	0
bin	-0.00023211524583333	0
bin	-0.00016579660416667	0
bin	-9.94779625e-005	0
bin	-3.3159320833333e-005	488
bin	3.3159320833333e-005	2
bin	9.94779625e-005	1
bin	0.00016579660416667	3
bin	0.00023211524583333	1
bin	0.0002984338875	0
bin	0.00036475252916667	3
bin	0.00043107117083333	1
bin	0.0004973898125	2
bin	0.00056370845416667	3
bin	0.00063002709583333	0
bin	0.0006963457375	1
bin	0.00076266437916667	0
bin	0.00082898302083333	188
bin	0.0008953016625	1
bin	0.00096162030416667	1
bin	0.0010279389458333	0
bin	0.0010942575875	0
bin	0.0011605762291667	1
bin	0.0012268948708333	1
bin	0.0012932135125	0
bin	0.0013595321541667	2
bin	0.0014258507958333	0
bin	0.0014921694375	1
scalar BusLAN.host[0].eth[0].queue.dataQueue dropPk:count 0
attr interpolationmode none
attr source dropPkByQueue
attr title "dropped packets, count"
scalar BusLAN.host[0].eth[0].queue.dataQueue dropPk:sum(packetBytes) 0
attr interpolationmode none
attr source dropPkByQueue
attr title "dropped packets, sum(packetBytes)"
scalar BusLAN.host[0].eth[0].queue.dataQueue rcvdPk:count 700
attr interpolationmode none
attr title "received packets, count"
scalar BusLAN.host[0].eth[0].queue.dataQueue rcvdPk:sum(packetBytes) 491968
attr interpolationmode none
attr title "received packets, sum(packetBytes)"
scalar BusLAN.host[0].eth[0].mac "simulated time" 20
scalar BusLAN.host[0].eth[0].mac full-duplex 1
scalar BusLAN.host[0].eth[0].mac "frames/sec sent" 49.35
scalar BusLAN.host[0].eth[0].mac "frames/sec rcvd" 51.15
scalar BusLAN.host[0].eth[0].mac "bits/sec sent" 274619.6
scalar BusLAN.host[0].eth[0].mac "bits/sec rcvd" 275541.2
scalar BusLAN.host[0].eth[0].mac "rx channel idle (%)" 75.830596
scalar BusLAN.host[0].eth[0].mac "rx channel utilization (%)" 24.169404
scalar BusLAN.host[0].eth[0].mac rxPkFromHL:count 700
attr interpolationmode none
attr source rxPkFromHL
attr title "packet bytes from higher layer, count"
scalar BusLAN.host[0].eth[0].mac rxPkFromHL:sum(packetBytes) 491968
attr interpolationmode none
attr source rxPkFromHL
attr title "packet bytes from higher layer, sum(packetBytes)"
scalar BusLAN.host[0].eth[0].mac rxPausePkUnits:count 0
attr interpolationmode none
attr title "pause units received, count"
scalar BusLAN.host[0].eth[0].mac rxPausePkUnits:sum 0
attr interpolationmode none
attr title "pause units received, sum"
scalar BusLAN.host[0].eth[0].mac txPausePkUnits:count 0
attr interpolationmode none
attr title "pause units sent, count"
scalar BusLAN.host[0].eth[0].mac txPausePkUnits:sum 0
attr interpolationmode none
attr title "pause units sent, sum"
scalar BusLAN.host[0].eth[0].mac txPk:count 700
attr interpolationmode none
attr source txPk
attr title "packets transmitted, count"
scalar BusLAN.host[0].eth[0].mac txPk:sum(packetBytes) 491968
attr interpolationmode none
attr source txPk
attr title "packets transmitted, sum(packetBytes)"
scalar BusLAN.host[0].eth[0].mac droppedPkNotForUs:count 5603
attr interpolationmode none
attr source dropPkNotForUs
attr title "packets dropped/not for us, count"
scalar BusLAN.host[0].eth[0].mac droppedPkNotForUs:sum(packetBytes) 4033478
attr interpolationmode none
attr source dropPkNotForUs
attr title "packets dropped/not for us, sum(packetBytes)"
scalar BusLAN.host[0].eth[0].mac droppedPkBitError:count 0
attr interpolationmode none
attr source dropPkBitError
attr title "packets dropped/bit error, count"
scalar BusLAN.host[0].eth[0].mac droppedPkBitError:sum(packetBytes) 0
attr interpolationmode none
attr source dropPkBitError
attr title "packets dropped/bit error, sum(packetBytes)"
scalar BusLAN.host[0].eth[0].mac droppedPkIfaceDown:count 0
attr interpolationmode none
attr source dropPkIfaceDown
attr title "packets dropped/interface down, count"
scalar BusLAN.host[0].eth[0].mac droppedPkIfaceDown:sum(packetBytes) 0
attr interpolationmode none
attr source dropPkIfaceDown
attr title "packets dropped/interface down, sum(packetBytes)"
scalar BusLAN.host[0].eth[0].mac rxPkOk:count 700
attr interpolationmode none
attr source rxPkOk
attr title "packets received OK, count"
scalar BusLAN.host[0].eth[0].mac rxPkOk:sum(packetBytes) 491968
attr interpolationmode none
attr source rxPkOk
attr title "packets received OK, sum(packetBytes)"
scalar BusLAN.host[0].eth[0].mac passedUpPk:count 700
attr interpolationmode none
attr source packetSentToUpper
attr title "packets passed to higher layer, count"
scalar BusLAN.host[0].eth[0].mac passedUpPk:sum(packetBytes) 491968
attr interpolationmode none
attr source packetSentToUpper
attr title "packets passed to higher layer, sum(packetBytes)"
scalar BusLAN.host[0].eth[0].encap pauseSent:count 0
attr title "pause sent, count"
scalar BusLAN.host[0].eth[0].encap pauseSent:sum 0
attr title "pause sent, sum"
scalar BusLAN.host[0].eth[0].encap decapPk:count 700
attr interpolationmode none
attr source decapPk
attr title "packets decapsulated, count"
scalar BusLAN.host[0].eth[0].encap decapPk:sum(packetBytes) 479368
attr interpolationmode none
attr source decapPk
attr title "packets decapsulated, sum(packetBytes)"
scalar BusLAN.host[0].eth[0].encap encapPk:count 700
attr interpolationmode none
attr source encapPk
attr title "packets encapsulated, count"
scalar BusLAN.host[0].eth[0].encap encapPk:sum(packetBytes) 479368
attr interpolationmode none
attr source encapPk
attr title "packets encapsulated, sum(packetBytes)"
scalar BusLAN.host[0].pingApp[0] "Pings sent" 207
scalar BusLAN.host[0].pingApp[0] "ping loss rate (%)" 0
scalar BusLAN.host[0].pingApp[0] "ping out-of-order rate (%)" 0
scalar BusLAN.host[0].pingApp[0] pingRxSeq:count 155
attr interpolationmode none
attr title "ping rx seq, count"
scalar BusLAN.host[0].pingApp[0] pingTxSeq:count 155
attr interpolationmode none
attr title "ping tx seq, count"
scalar BusLAN.host[0].pingApp[0] numOutOfOrderArrivals:last nan
attr interpolationmode none
attr title "ping out-of-order arrivals, last"
scalar BusLAN.host[0].pingApp[0] numLost:last nan
attr interpolationmode none
attr title "pings lost, last"
scalar BusLAN.host[0].pingApp[0] rtt:mean 0.00088520785
attr interpolationmode none
attr title "ping round-trip time, mean"
attr unit s
scalar BusLAN.host[0].pingApp[1] "Pings sent" 193
scalar BusLAN.host[0].pingApp[1] "ping loss rate (%)" 0
scalar BusLAN.host[0].pingApp[1] "ping out-of-order rate (%)" 0
scalar BusLAN.host[0].pingApp[1] pingRxSeq:count 138
attr interpolationmode none
attr title "ping rx seq, count"
scalar BusLAN.host[0].pingApp[1] pingTxSeq:count 138
attr interpolationmode none
attr title "ping tx seq, count"
scalar BusLAN.host[0].pingApp[1] numOutOfOrderArrivals:last nan
attr interpolationmode none
attr title "ping out-of-order arrivals, last"
scalar BusLAN.host[0].pingApp[1] numLost:last nan
attr interpolationmode none
attr title "pings lost, last"
scalar BusLAN.host[0].pingApp[1] rtt:mean 0.002530989036072
attr interpolationmode none
attr title "ping round-trip time, mean"
attr unit s
scalar BusLAN.host[1].networkLayer.arp sentReply:count 0
attr title "ARP replies sent, count"
scalar BusLAN.host[1].networkLayer.arp sentReq:count 0
attr title "ARP request sent, count"
scalar BusLAN.host[1].networkLayer.arp failedARPResolution:count 0
attr title "ARP failed resolutions, count"
scalar BusLAN.host[1].networkLayer.arp completedARPResolution:count 0
attr title "ARP completed resolutions, count"
scalar BusLAN.host[1].networkLayer.arp initiatedARPResolution:count 0
attr title "ARP initiated resolutions, count"
scalar BusLAN.host[1].lo0.lo droppedPkBitError:count 0
attr interpolationmode none
attr source dropPkBitError
attr title "packets dropped/bit error, count"
scalar BusLAN.host[1].lo0.lo droppedPkBitError:sum(packetBytes) 0
attr interpolationmode none
attr source dropPkBitError
attr title "packets dropped/bit error, sum(packetBytes)"
scalar BusLAN.host[1].lo0.lo rcvdPkFromHL:count 72
attr interpolationmode none
attr source packetReceivedFromUpper
attr title "packets received from higher layer, count"
scalar BusLAN.host[1].lo0.lo rcvdPkFromHL:sum(packetBytes) 57420
attr interpolationmode none
attr source packetReceivedFromUpper
attr title "packets received from higher layer, sum(packetBytes)"
scalar BusLAN.host[1].lo0.lo passedUpPk:count 72
attr interpolationmode none
attr source packetSentToUpper
attr title "packets passed to higher layer, count"
scalar BusLAN.host[1].lo0.lo passedUpPk:sum(packetBytes) 57420
attr interpolationmode none
attr source packetSentToUpper
attr title "packets passed to higher layer, sum(packetBytes)"
scalar BusLAN.host[1].eth[0].queue.pauseQueue queueLength:max nan
attr interpolationmode sample-hold
attr title "queue length, max"
scalar BusLAN.host[1].eth[0].queue.pauseQueue queueLength:timeavg nan
attr interpolationmode sample-hold
attr title "queue length, timeavg"
statistic BusLAN.host[1].eth[0].queue.pauseQueue queueingTime:histogram
field count 0
field mean nan
field stddev nan
field min nan
field max nan
field sum 0
field sqrsum 0
attr interpolationmode none
attr title "queueing time, histogram"
bin	-inf	0
bin	-0.5	0
bin	-0.46666666666667	0
bin	-0.43333333333333	0
bin	-0.4	0
bin	-0.36666666666667	0
bin	-0.33333333333333	0
bin	-0.3	0
bin	-0.26666666666667	0
bin	-0.23333333333333	0
bin	-0.2	0
bin	-0.16666666666667	0
bin	-0.13333333333333	0
bin	-0.1	0
bin	-0.066666666666667	0
bin	-0.033333333333333	0
bin	0	0
bin	0.033333333333333	0
bin	0.066666666666667	0
bin	0.1	0
bin	0.13333333333333	0
bin	0.16666666666667	0
bin	0.2	0
bin	0.23333333333333	0
bin	0.26666666666667	0
bin	0.3	0
bin	0.33333333333333	0
bin	0.36666666666667	0
bin	0.4	0
bin	0.43333333333333	0
bin	0.46666666666667	0
bin	0.5	0
scalar BusLAN.host[1].eth[0].queue.pauseQueue dropPk:count 0
attr interpolationmode none
attr source dropPkByQueue
attr title "dropped packets, count"
scalar BusLAN.host[1].eth[0].queue.pauseQueue dropPk:sum(packetBytes) 0
attr interpolationmode none
attr source dropPkByQueue
attr title "dropped packets, sum(packetBytes)"
scalar BusLAN.host[1].eth[0].queue.pauseQueue rcvdPk:count 0
attr interpolationmode none
attr title "received packets, count"
scalar BusLAN.host[1].eth[0].queue.pauseQueue rcvdPk:sum(packetBytes) 0
attr interpolationmode none
attr title "received packets, sum(packetBytes)"
scalar BusLAN.host[1].eth[0].queue.dataQueue queueLength:max 2
attr interpolationmode sample-hold
attr title "queue length, max"
scalar BusLAN.host[1].eth[0].queue.dataQueue queueLength:timeavg 0.0069009467886128
attr interpolationmode sample-hold
attr title "queue length, timeavg"
statistic BusLAN.host[1].eth[0].queue.dataQueue queueingTime:histogram
field count 651
field mean 0.00015875184883256
field stddev 0.00032932420736972
field min 0
field max 0.001382717212
field sum 0.10334745359
field sqrsum 8.6901981143353e-005
attr interpolationmode none
attr title "queueing time, histogram"
bin	-inf	0
bin	-0.0004232	0
bin	-0.00036677333333333	0
bin	-0.00031034666666667	0
bin	-0.00025392	0
bin	-0.00019749333333333	0
bin	-0.00014106666666667	0
bin	-8.464e-005	0
bin	-2.8213333333333e-005	523
bin	2.8213333333333e-005	0
bin	8.464e-005	2
bin	0.00014106666666667	0
bin	0.00019749333333333	1
bin	0.00025392	1
bin	0.00031034666666667	2
bin	0.00036677333333333	2
bin	0.0004232	2
bin	0.00047962666666667	0
bin	0.00053605333333333	1
bin	0.00059248	2
bin	0.00064890666666667	0
bin	0.00070533333333333	0
bin	0.00076176	0
bin	0.00081818666666667	112
bin	0.00087461333333333	0
bin	0.00093104	0
bin	0.00098746666666667	1
bin	0.0010438933333333	0
bin	0.00110032	0
bin	0.0011567466666667	0
bin	0.0012131733333333	1
bin	0.0012696	1
scalar BusLAN.host[1].eth[0].queue.dataQueue dropPk:count 0
attr interpolationmode none
attr source dropPkByQueue
attr title "dropped packets, count"
scalar BusLAN.host[1].eth[0].queue.dataQueue dropPk:sum(packetBytes) 0
attr interpolationmode none
attr source dropPkByQueue
attr title "dropped packets, sum(packetBytes)"
scalar BusLAN.host[1].eth[0].queue.dataQueue rcvdPk:count 651
attr interpolationmode none
attr title "received packets, count"
scalar BusLAN.host[1].eth[0].queue.dataQueue rcvdPk:sum(packetBytes) 473683
attr interpolationmode none
attr title "received packets, sum(packetBytes)"
scalar BusLAN.host[1].eth[0].mac "simulated time" 20
scalar BusLAN.host[1].eth[0].mac full-duplex 1
scalar BusLAN.host[1].eth[0].mac "frames/sec sent" 44.15
scalar BusLAN.host[1].eth[0].mac "frames/sec rcvd" 45.95
scalar BusLAN.host[1].eth[0].mac "bits/sec sent" 255831.6
scalar BusLAN.host[1].eth[0].mac "bits/sec rcvd" 256753.2
scalar BusLAN.host[1].eth[0].mac "rx channel idle (%)" 75.639388
scalar BusLAN.host[1].eth[0].mac "rx channel utilization (%)" 24.360612
scalar BusLAN.host[1].eth[0].mac rxPkFromHL:count 651
attr interpolationmode none
attr source rxPkFromHL
attr title "packet bytes from higher layer, count"
scalar BusLAN.host[1].eth[0].mac rxPkFromHL:sum(packetBytes) 473683
attr interpolationmode none
attr source rxPkFromHL
attr title "packet bytes from higher layer, sum(packetBytes)"
scalar BusLAN.host[1].eth[0].mac rxPausePkUnits:count 0
attr interpolationmode none
attr title "pause units received, count"
scalar BusLAN.host[1].eth[0].mac rxPausePkUnits:sum 0
attr interpolationmode none
attr title "pause units received, sum"
scalar BusLAN.host[1].eth[0].mac txPausePkUnits:count 0
attr interpolationmode none
attr title "pause units sent, count"
scalar BusLAN.host[1].eth[0].mac txPausePkUnits:sum 0
attr interpolationmode none
attr title "pause units sent, sum"
scalar BusLAN.host[1].eth[0].mac txPk:count 651
attr interpolationmode none
attr source txPk
attr title "packets transmitted, count"
scalar BusLAN.host[1].eth[0].mac txPk:sum(packetBytes) 473683
attr interpolationmode none
attr source txPk
attr title "packets transmitted, sum(packetBytes)"
scalar BusLAN.host[1].eth[0].mac droppedPkNotForUs:count 5701
attr interpolationmode none
attr source dropPkNotForUs
attr title "packets dropped/not for us, count"
scalar BusLAN.host[1].eth[0].mac droppedPkNotForUs:sum(packetBytes) 4070048
attr interpolationmode none
attr source dropPkNotForUs
attr title "packets dropped/not for us, sum(packetBytes)"
scalar BusLAN.host[1].eth[0].mac droppedPkBitError:count 0
attr interpolationmode none
attr source dropPkBitError
attr title "packets dropped/bit error, count"
scalar BusLAN.host[1].eth[0].mac droppedPkBitError:sum(packetBytes) 0
attr interpolationmode none
attr source dropPkBitError
attr title "packets dropped/bit error, sum(packetBytes)"
scalar BusLAN.host[1].eth[0].mac droppedPkIfaceDown:count 0
attr interpolationmode none
attr source dropPkIfaceDown
attr title "packets dropped/interface down, count"
scalar BusLAN.host[1].eth[0].mac droppedPkIfaceDown:sum(packetBytes) 0
attr interpolationmode none
attr source dropPkIfaceDown
attr title "packets dropped/interface down, sum(packetBytes)"
scalar BusLAN.host[1].eth[0].mac rxPkOk:count 651
attr interpolationmode none
attr source rxPkOk
attr title "packets received OK, count"
scalar BusLAN.host[1].eth[0].mac rxPkOk:sum(packetBytes) 473683
attr interpolationmode none
attr source rxPkOk
attr title "packets received OK, sum(packetBytes)"
scalar BusLAN.host[1].eth[0].mac passedUpPk:count 651
attr interpolationmode none
attr source packetSentToUpper
attr title "packets passed to higher layer, count"
scalar BusLAN.host[1].eth[0].mac passedUpPk:sum(packetBytes) 473683
attr interpolationmode none
attr source packetSentToUpper
attr title "packets passed to higher layer, sum(packetBytes)"
scalar BusLAN.host[1].eth[0].encap pauseSent:count 0
attr title "pause sent, count"
scalar BusLAN.host[1].eth[0].encap pauseSent:sum 0
attr title "pause sent, sum"
scalar BusLAN.host[1].eth[0].encap decapPk:count 651
attr interpolationmode none
attr source decapPk
attr title "packets decapsulated, count"
scalar BusLAN.host[1].eth[0].encap decapPk:sum(packetBytes) 461965
attr interpolationmode none
attr source decapPk
attr title "packets decapsulated, sum(packetBytes)"
scalar BusLAN.host[1].eth[0].encap encapPk:count 651
attr interpolationmode none
attr source encapPk
attr title "packets encapsulated, count"
scalar BusLAN.host[1].eth[0].encap encapPk:sum(packetBytes) 461965
attr interpolationmode none
attr source encapPk
attr title "packets encapsulated, sum(packetBytes)"
scalar BusLAN.host[1].pingApp[0] "Pings sent" 198
scalar BusLAN.host[1].pingApp[0] "ping loss rate (%)" 0
scalar BusLAN.host[1].pingApp[0] "ping out-of-order rate (%)" 0
scalar BusLAN.host[1].pingApp[0] pingRxSeq:count 146
attr interpolationmode none
attr title "ping rx seq, count"
scalar BusLAN.host[1].pingApp[0] pingTxSeq:count 146
attr interpolationmode none
attr title "ping tx seq, count"
scalar BusLAN.host[1].pingApp[0] numOutOfOrderArrivals:last nan
attr interpolationmode none
attr title "ping out-of-order arrivals, last"
scalar BusLAN.host[1].pingApp[0] numLost:last nan
attr interpolationmode none
attr title "pings lost, last"
scalar BusLAN.host[1].pingApp[0] rtt:mean 0.0011402229785267
attr interpolationmode none
attr title "ping round-trip time, mean"
attr unit s
scalar BusLAN.host[1].pingApp[1] "Pings sent" 191
scalar BusLAN.host[1].pingApp[1] "ping loss rate (%)" 0
scalar BusLAN.host[1].pingApp[1] "ping out-of-order rate (%)" 0
scalar BusLAN.host[1].pingApp[1] pingRxSeq:count 143
attr interpolationmode none
attr title "ping rx seq, count"
scalar BusLAN.host[1].pingApp[1] pingTxSeq:count 143
attr interpolationmode none
attr title "ping tx seq, count"
scalar BusLAN.host[1].pingApp[1] numOutOfOrderArrivals:last nan
attr interpolationmode none
attr title "ping out-of-order arrivals, last"
scalar BusLAN.host[1].pingApp[1] numLost:last nan
attr interpolationmode none
attr title "pings lost, last"
scalar BusLAN.host[1].pingApp[1] rtt:mean 0.0015030629710246
attr interpolationmode none
attr title "ping round-trip time, mean"
attr unit s
scalar BusLAN.host[2].networkLayer.arp sentReply:count 0
attr title "ARP replies sent, count"
scalar BusLAN.host[2].networkLayer.arp sentReq:count 0
attr title "ARP request sent, count"
scalar BusLAN.host[2].networkLayer.arp failedARPResolution:count 0
attr title "ARP failed resolutions, count"
scalar BusLAN.host[2].networkLayer.arp completedARPResolution:count 0
attr title "ARP completed resolutions, count"
scalar BusLAN.host[2].networkLayer.arp initiatedARPResolution:count 0
attr title "ARP initiated resolutions, count"
scalar BusLAN.host[2].lo0.lo droppedPkBitError:count 0
attr interpolationmode none
attr source dropPkBitError
attr title "packets dropped/bit error, count"
scalar BusLAN.host[2].lo0.lo droppedPkBitError:sum(packetBytes) 0
attr interpolationmode none
attr source dropPkBitError
attr title "packets dropped/bit error, sum(packetBytes)"
scalar BusLAN.host[2].lo0.lo rcvdPkFromHL:count 132
attr interpolationmode none
attr source packetReceivedFromUpper
attr title "packets received from higher layer, count"
scalar BusLAN.host[2].lo0.lo rcvdPkFromHL:sum(packetBytes) 99742
attr interpolationmode none
attr source packetReceivedFromUpper
attr title "packets received from higher layer, sum(packetBytes)"
scalar BusLAN.host[2].lo0.lo passedUpPk:count 132
attr interpolationmode none
attr source packetSentToUpper
attr title "packets passed to higher layer, count"
scalar BusLAN.host[2].lo0.lo passedUpPk:sum(packetBytes) 99742
attr interpolationmode none
attr source packetSentToUpper
attr title "packets passed to higher layer, sum(packetBytes)"
scalar BusLAN.host[2].eth[0].queue.pauseQueue queueLength:max nan
attr interpolationmode sample-hold
attr title "queue length, max"
scalar BusLAN.host[2].eth[0].queue.pauseQueue queueLength:timeavg nan
attr interpolationmode sample-hold
attr title "queue length, timeavg"
statistic BusLAN.host[2].eth[0].queue.pauseQueue queueingTime:histogram
field count 0
field mean nan
field stddev nan
field min nan
field max nan
field sum 0
field sqrsum 0
attr interpolationmode none
attr title "queueing time, histogram"
bin	-inf	0
bin	-0.5	0
bin	-0.46666666666667	0
bin	-0.43333333333333	0
bin	-0.4	0
bin	-0.36666666666667	0
bin	-0.33333333333333	0
bin	-0.3	0
bin	-0.26666666666667	0
bin	-0.23333333333333	0
bin	-0.2	0
bin	-0.16666666666667	0
bin	-0.13333333333333	0
bin	-0.1	0
bin	-0.066666666666667	0
bin	-0.033333333333333	0
bin	0	0
bin	0.033333333333333	0
bin	0.066666666666667	0
bin	0.1	0
bin	0.13333333333333	0
bin	0.16666666666667	0
bin	0.2	0
bin	0.23333333333333	0
bin	0.26666666666667	0
bin	0.3	0
bin	0.33333333333333	0
bin	0.36666666666667	0
bin	0.4	0
bin	0.43333333333333	0
bin	0.46666666666667	0
bin	0.5	0
scalar BusLAN.host[2].eth[0].queue.pauseQueue dropPk:count 0
attr interpolationmode none
attr source dropPkByQueue
attr title "dropped packets, count"
scalar BusLAN.host[2].eth[0].queue.pauseQueue dropPk:sum(packetBytes) 0
attr interpolationmode none
attr source dropPkByQueue
attr title "dropped packets, sum(packetBytes)"
scalar BusLAN.host[2].eth[0].queue.pauseQueue rcvdPk:count 0
attr interpolationmode none
attr title "received packets, count"
scalar BusLAN.host[2].eth[0].queue.pauseQueue rcvdPk:sum(packetBytes) 0
attr interpolationmode none
attr title "received packets, sum(packetBytes)"
scalar BusLAN.host[2].eth[0].queue.dataQueue queueLength:max 3
attr interpolationmode sample-hold
attr title "queue length, max"
scalar BusLAN.host[2].eth[0].queue.dataQueue queueLength:timeavg 0.012897017570384
attr interpolationmode sample-hold
attr title "queue length, timeavg"
statistic BusLAN.host[2].eth[0].queue.dataQueue queueingTime:histogram
field count 728
field mean 0.00026533492591346
field stddev 0.00039701880495457
field min 0
field max 0.001460917901
field sum 0.193163826065
field sqrsum 0.00016584570766957
attr interpolationmode none
attr title "queueing time, histogram"
bin	-inf	0
bin	-0.0004232	0
bin	-0.00036677333333333	0
bin	-0.00031034666666667	0
bin	-0.00025392	0
bin	-0.00019749333333333	0
bin	-0.00014106666666667	0
bin	-8.464e-005	0
bin	-2.8213333333333e-005	497
bin	2.8213333333333e-005	1
bin	8.464e-005	0
bin	0.00014106666666667	1
bin	0.00019749333333333	1
bin	0.00025392	1
bin	0.00031034666666667	3
bin	0.00036677333333333	0
bin	0.0004232	0
bin	0.00047962666666667	2
bin	0.00053605333333333	1
bin	0.00059248	2
bin	0.00064890666666667	0
bin	0.00070533333333333	1
bin	0.00076176	0
bin	0.00081818666666667	209
bin	0.00087461333333333	1
bin	0.00093104	0
bin	0.00098746666666667	1
bin	0.0010438933333333	0
bin	0.00110032	1
bin	0.0011567466666667	3
bin	0.0012131733333333	0
bin	0.0012696	3
scalar BusLAN.host[2].eth[0].queue.dataQueue dropPk:count 0
attr interpolationmode none
attr source dropPkByQueue
attr title "dropped packets, count"
scalar BusLAN.host[2].eth[0].queue.dataQueue dropPk:sum(packetBytes) 0
attr interpolationmode none
attr source dropPkByQueue
attr title "dropped packets, sum(packetBytes)"
scalar BusLAN.host[2].eth[0].queue.dataQueue rcvdPk:count 728
attr interpolationmode none
attr title "received packets, count"
scalar BusLAN.host[2].eth[0].queue.dataQueue rcvdPk:sum(packetBytes) 539799
attr interpolationmode none
attr title "received packets, sum(packetBytes)"
scalar BusLAN.host[2].eth[0].mac "simulated time" 20
scalar BusLAN.host[2].eth[0].mac full-duplex 1
scalar BusLAN.host[2].eth[0].mac "frames/sec sent" 48.3
scalar BusLAN.host[2].eth[0].mac "frames/sec rcvd" 50.1
scalar BusLAN.host[2].eth[0].mac "bits/sec sent" 284876
scalar BusLAN.host[2].eth[0].mac "bits/sec rcvd" 285797.6
scalar BusLAN.host[2].eth[0].mac "rx channel idle (%)" 75.932488
scalar BusLAN.host[2].eth[0].mac "rx channel utilization (%)" 24.067512
scalar BusLAN.host[2].eth[0].mac rxPkFromHL:count 728
attr interpolationmode none
attr source rxPkFromHL
attr title "packet bytes from higher layer, count"
scalar BusLAN.host[2].eth[0].mac rxPkFromHL:sum(packetBytes) 539799
attr interpolationmode none
attr source rxPkFromHL
attr title "packet bytes from higher layer, sum(packetBytes)"
scalar BusLAN.host[2].eth[0].mac rxPausePkUnits:count 0
attr interpolationmode none
attr title "pause units received, count"
scalar BusLAN.host[2].eth[0].mac rxPausePkUnits:sum 0
attr interpolationmode none
attr title "pause units received, sum"
scalar BusLAN.host[2].eth[0].mac txPausePkUnits:count 0
attr interpolationmode none
attr title "pause units sent, count"
scalar BusLAN.host[2].eth[0].mac txPausePkUnits:sum 0
attr interpolationmode none
attr title "pause units sent, sum"
scalar BusLAN.host[2].eth[0].mac txPk:count 728
attr interpolationmode none
attr source txPk
attr title "packets transmitted, count"
scalar BusLAN.host[2].eth[0].mac txPk:sum(packetBytes) 539799
attr interpolationmode none
attr source txPk
attr title "packets transmitted, sum(packetBytes)"
scalar BusLAN.host[2].eth[0].mac droppedPkNotForUs:count 5547
attr interpolationmode none
attr source dropPkNotForUs
attr title "packets dropped/not for us, count"
scalar BusLAN.host[2].eth[0].mac droppedPkNotForUs:sum(packetBytes) 3937816
attr interpolationmode none
attr source dropPkNotForUs
attr title "packets dropped/not for us, sum(packetBytes)"
scalar BusLAN.host[2].eth[0].mac droppedPkBitError:count 0
attr interpolationmode none
attr source dropPkBitError
attr title "packets dropped/bit error, count"
scalar BusLAN.host[2].eth[0].mac droppedPkBitError:sum(packetBytes) 0
attr interpolationmode none
attr source dropPkBitError
attr title "packets dropped/bit error, sum(packetBytes)"
scalar BusLAN.host[2].eth[0].mac droppedPkIfaceDown:count 0
attr interpolationmode none
attr source dropPkIfaceDown
attr title "packets dropped/interface down, count"
scalar BusLAN.host[2].eth[0].mac droppedPkIfaceDown:sum(packetBytes) 0
attr interpolationmode none
attr source dropPkIfaceDown
attr title "packets dropped/interface down, sum(packetBytes)"
scalar BusLAN.host[2].eth[0].mac rxPkOk:count 728
attr interpolationmode none
attr source rxPkOk
attr title "packets received OK, count"
scalar BusLAN.host[2].eth[0].mac rxPkOk:sum(packetBytes) 539799
attr interpolationmode none
attr source rxPkOk
attr title "packets received OK, sum(packetBytes)"
scalar BusLAN.host[2].eth[0].mac passedUpPk:count 728
attr interpolationmode none
attr source packetSentToUpper
attr title "packets passed to higher layer, count"
scalar BusLAN.host[2].eth[0].mac passedUpPk:sum(packetBytes) 539799
attr interpolationmode none
attr source packetSentToUpper
attr title "packets passed to higher layer, sum(packetBytes)"
scalar BusLAN.host[2].eth[0].encap pauseSent:count 0
attr title "pause sent, count"
scalar BusLAN.host[2].eth[0].encap pauseSent:sum 0
attr title "pause sent, sum"
scalar BusLAN.host[2].eth[0].encap decapPk:count 728
attr interpolationmode none
attr source decapPk
attr title "packets decapsulated, count"
scalar BusLAN.host[2].eth[0].encap decapPk:sum(packetBytes) 526695
attr interpolationmode none
attr source decapPk
attr title "packets decapsulated, sum(packetBytes)"
scalar BusLAN.host[2].eth[0].encap encapPk:count 728
attr interpolationmode none
attr source encapPk
attr title "packets encapsulated, count"
scalar BusLAN.host[2].eth[0].encap encapPk:sum(packetBytes) 526695
attr interpolationmode none
attr source encapPk
attr title "packets encapsulated, sum(packetBytes)"
scalar BusLAN.host[2].pingApp[0] "Pings sent" 185
scalar BusLAN.host[2].pingApp[0] "ping loss rate (%)" 0
scalar BusLAN.host[2].pingApp[0] "ping out-of-order rate (%)" 0
scalar BusLAN.host[2].pingApp[0] pingRxSeq:count 140
attr interpolationmode none
attr title "ping rx seq, count"
scalar BusLAN.host[2].pingApp[0] pingTxSeq:count 140
attr interpolationmode none
attr title "ping tx seq, count"
scalar BusLAN.host[2].pingApp[0] numOutOfOrderArrivals:last nan
attr interpolationmode none
attr title "ping out-of-order arrivals, last"
scalar BusLAN.host[2].pingApp[0] numLost:last nan
attr interpolationmode none
attr title "pings lost, last"
scalar BusLAN.host[2].pingApp[0] rtt:mean 0.001442258052525
attr interpolationmode none
attr title "ping round-trip time, mean"
attr unit s
scalar BusLAN.host[2].pingApp[1] "Pings sent" 197
scalar BusLAN.host[2].pingApp[1] "ping loss rate (%)" 0
scalar BusLAN.host[2].pingApp[1] "ping out-of-order rate (%)" 0
scalar BusLAN.host[2].pingApp[1] pingRxSeq:count 147
attr interpolationmode none
attr title "ping rx seq, count"
scalar BusLAN.host[2].pingApp[1] pingTxSeq:count 147
attr interpolationmode none
attr title "ping tx seq, count"
scalar BusLAN.host[2].pingApp[1] numOutOfOrderArrivals:last nan
attr interpolationmode none
attr title "ping out-of-order arrivals, last"
scalar BusLAN.host[2].pingApp[1] numLost:last nan
attr interpolationmode none
attr title "pings lost, last"
scalar BusLAN.host[2].pingApp[1] rtt:mean 0.0023972700513468
attr interpolationmode none
attr title "ping round-trip time, mean"
attr unit s
scalar BusLAN.host[3].networkLayer.arp sentReply:count 0
attr title "ARP replies sent, count"
scalar BusLAN.host[3].networkLayer.arp sentReq:count 0
attr title "ARP request sent, count"
scalar BusLAN.host[3].networkLayer.arp failedARPResolution:count 0
attr title "ARP failed resolutions, count"
scalar BusLAN.host[3].networkLayer.arp completedARPResolution:count 0
attr title "ARP completed resolutions, count"
scalar BusLAN.host[3].networkLayer.arp initiatedARPResolution:count 0
attr title "ARP initiated resolutions, count"
scalar BusLAN.host[3].lo0.lo droppedPkBitError:count 0
attr interpolationmode none
attr source dropPkBitError
attr title "packets dropped/bit error, count"
scalar BusLAN.host[3].lo0.lo droppedPkBitError:sum(packetBytes) 0
attr interpolationmode none
attr source dropPkBitError
attr title "packets dropped/bit error, sum(packetBytes)"
scalar BusLAN.host[3].lo0.lo rcvdPkFromHL:count 52
attr interpolationmode none
attr source packetReceivedFromUpper
attr title "packets received from higher layer, count"
scalar BusLAN.host[3].lo0.lo rcvdPkFromHL:sum(packetBytes) 40196
attr interpolationmode none
attr source packetReceivedFromUpper
attr title "packets received from higher layer, sum(packetBytes)"
scalar BusLAN.host[3].lo0.lo passedUpPk:count 52
attr interpolationmode none
attr source packetSentToUpper
attr title "packets passed to higher layer, count"
scalar BusLAN.host[3].lo0.lo passedUpPk:sum(packetBytes) 40196
attr interpolationmode none
attr source packetSentToUpper
attr title "packets passed to higher layer, sum(packetBytes)"
scalar BusLAN.host[3].eth[0].queue.pauseQueue queueLength:max nan
attr interpolationmode sample-hold
attr title "queue length, max"
scalar BusLAN.host[3].eth[0].queue.pauseQueue queueLength:timeavg nan
attr interpolationmode sample-hold
attr title "queue length, timeavg"
statistic BusLAN.host[3].eth[0].queue.pauseQueue queueingTime:histogram
field count 0
field mean nan
field stddev nan
field min nan
field max nan
field sum 0
field sqrsum 0
attr interpolationmode none
attr title "queueing time, histogram"
bin	-inf	0
bin	-0.5	0
bin	-0.46666666666667	0
bin	-0.43333333333333	0
bin	-0.4	0
bin	-0.36666666666667	0
bin	-0.33333333333333	0
bin	-0.3	0
bin	-0.26666666666667	0
bin	-0.23333333333333	0
bin	-0.2	0
bin	-0.16666666666667	0
bin	-0.13333333333333	0
bin	-0.1	0
bin	-0.066666666666667	0
bin	-0.033333333333333	0
bin	0	0
bin	0.033333333333333	0
bin	0.066666666666667	0
bin	0.1	0
bin	0.13333333333333	0
bin	0.16666666666667	0
bin	0.2	0
bin	0.23333333333333	0
bin	0.26666666666667	0
bin	0.3	0
bin	0.33333333333333	0
bin	0.36666666666667	0
bin	0.4	0
bin	0.43333333333333	0
bin	0.46666666666667	0
bin	0.5	0
scalar BusLAN.host[3].eth[0].queue.pauseQueue dropPk:count 0
attr interpolationmode none
attr source dropPkByQueue
attr title "dropped packets, count"
scalar BusLAN.host[3].eth[0].queue.pauseQueue dropPk:sum(packetBytes) 0
attr interpolationmode none
attr source dropPkByQueue
attr title "dropped packets, sum(packetBytes)"
scalar BusLAN.host[3].eth[0].queue.pauseQueue rcvdPk:count 0
attr interpolationmode none
attr title "received packets, count"
scalar BusLAN.host[3].eth[0].queue.pauseQueue rcvdPk:sum(packetBytes) 0
attr interpolationmode none
attr title "received packets, sum(packetBytes)"
scalar BusLAN.host[3].eth[0].queue.dataQueue queueLength:max 3
attr interpolationmode sample-hold
attr title "queue length, max"
scalar BusLAN.host[3].eth[0].queue.dataQueue queueLength:timeavg 0.007831585406929
attr interpolationmode sample-hold
attr title "queue length, timeavg"
statistic BusLAN.host[3].eth[0].queue.dataQueue queueingTime:histogram
field count 699
field mean 0.00016779861308298
field stddev 0.00033883244388811
field min 0
field max 0.001539508148
field sum 0.117291230545
field sqrsum 9.9816888484016e-005
attr interpolationmode none
attr title "queueing time, histogram"
bin	-inf	0
bin	-0.0006382409025	0
bin	-0.0005531421155	0
bin	-0.0004680433285	0
bin	-0.0003829445415	0
bin	-0.0002978457545	0
bin	-0.0002127469675	0
bin	-0.0001276481805	0
bin	-4.25493935e-005	557
bin	4.25493935e-005	0
bin	0.0001276481805	1
bin	0.0002127469675	3
bin	0.0002978457545	1
bin	0.0003829445415	1
bin	0.0004680433285	1
bin	0.0005531421155	1
bin	0.0006382409025	3
bin	0.0007233396895	1
bin	0.0008084384765	125
bin	0.0008935372635	1
bin	0.0009786360505	2
bin	0.0010637348375	0
bin	0.0011488336245	0
bin	0.0012339324115	1
bin	0.0013190311985	0
bin	0.0014041299855	0
bin	0.0014892287725	1
bin	0.0015743275595	0
bin	0.0016594263465	0
bin	0.0017445251335	0
bin	0.0018296239205	0
bin	0.0019147227075	0
scalar BusLAN.host[3].eth[0].queue.dataQueue dropPk:count 0
attr interpolationmode none
attr source dropPkByQueue
attr title "dropped packets, count"
scalar BusLAN.host[3].eth[0].queue.dataQueue dropPk:sum(packetBytes) 0
attr interpolationmode none
attr source dropPkByQueue
attr title "dropped packets, sum(packetBytes)"
scalar BusLAN.host[3].eth[0].queue.dataQueue rcvdPk:count 699
attr interpolationmode none
attr title "received packets, count"
scalar BusLAN.host[3].eth[0].queue.dataQueue rcvdPk:sum(packetBytes) 509128
attr interpolationmode none
attr title "received packets, sum(packetBytes)"
scalar BusLAN.host[3].eth[0].mac "simulated time" 20
scalar BusLAN.host[3].eth[0].mac full-duplex 1
scalar BusLAN.host[3].eth[0].mac "frames/sec sent" 45.75
scalar BusLAN.host[3].eth[0].mac "frames/sec rcvd" 47.6
scalar BusLAN.host[3].eth[0].mac "bits/sec sent" 263649.6
scalar BusLAN.host[3].eth[0].mac "bits/sec rcvd" 264844.8
scalar BusLAN.host[3].eth[0].mac "rx channel idle (%)" 75.718592
scalar BusLAN.host[3].eth[0].mac "rx channel utilization (%)" 24.281408
scalar BusLAN.host[3].eth[0].mac rxPkFromHL:count 699
attr interpolationmode none
attr source rxPkFromHL
attr title "packet bytes from higher layer, count"
scalar BusLAN.host[3].eth[0].mac rxPkFromHL:sum(packetBytes) 509128
attr interpolationmode none
attr source rxPkFromHL
attr title "packet bytes from higher layer, sum(packetBytes)"
scalar BusLAN.host[3].eth[0].mac rxPausePkUnits:count 0
attr interpolationmode none
attr title "pause units received, count"
scalar BusLAN.host[3].eth[0].mac rxPausePkUnits:sum 0
attr interpolationmode none
attr title "pause units received, sum"
scalar BusLAN.host[3].eth[0].mac txPausePkUnits:count 0
attr interpolationmode none
attr title "pause units sent, count"
scalar BusLAN.host[3].eth[0].mac txPausePkUnits:sum 0
attr interpolationmode none
attr title "pause units sent, sum"
scalar BusLAN.host[3].eth[0].mac txPk:count 698
attr interpolationmode none
attr source txPk
attr title "packets transmitted, count"
scalar BusLAN.host[3].eth[0].mac txPk:sum(packetBytes) 508444
attr interpolationmode none
attr source txPk
attr title "packets transmitted, sum(packetBytes)"
scalar BusLAN.host[3].eth[0].mac droppedPkNotForUs:count 5606
attr interpolationmode none
attr source dropPkNotForUs
attr title "packets dropped/not for us, count"
scalar BusLAN.host[3].eth[0].mac droppedPkNotForUs:sum(packetBytes) 3999842
attr interpolationmode none
attr source dropPkNotForUs
attr title "packets dropped/not for us, sum(packetBytes)"
scalar BusLAN.host[3].eth[0].mac droppedPkBitError:count 0
attr interpolationmode none
attr source dropPkBitError
attr title "packets dropped/bit error, count"
scalar BusLAN.host[3].eth[0].mac droppedPkBitError:sum(packetBytes) 0
attr interpolationmode none
attr source dropPkBitError
attr title "packets dropped/bit error, sum(packetBytes)"
scalar BusLAN.host[3].eth[0].mac droppedPkIfaceDown:count 0
attr interpolationmode none
attr source dropPkIfaceDown
attr title "packets dropped/interface down, count"
scalar BusLAN.host[3].eth[0].mac droppedPkIfaceDown:sum(packetBytes) 0
attr interpolationmode none
attr source dropPkIfaceDown
attr title "packets dropped/interface down, sum(packetBytes)"
scalar BusLAN.host[3].eth[0].mac rxPkOk:count 699
attr interpolationmode none
attr source rxPkOk
attr title "packets received OK, count"
scalar BusLAN.host[3].eth[0].mac rxPkOk:sum(packetBytes) 509128
attr interpolationmode none
attr source rxPkOk
attr title "packets received OK, sum(packetBytes)"
scalar BusLAN.host[3].eth[0].mac passedUpPk:count 699
attr interpolationmode none
attr source packetSentToUpper
attr title "packets passed to higher layer, count"
scalar BusLAN.host[3].eth[0].mac passedUpPk:sum(packetBytes) 509128
attr interpolationmode none
attr source packetSentToUpper
attr title "packets passed to higher layer, sum(packetBytes)"
scalar BusLAN.host[3].eth[0].encap pauseSent:count 0
attr title "pause sent, count"
scalar BusLAN.host[3].eth[0].encap pauseSent:sum 0
attr title "pause sent, sum"
scalar BusLAN.host[3].eth[0].encap decapPk:count 699
attr interpolationmode none
attr source decapPk
attr title "packets decapsulated, count"
scalar BusLAN.host[3].eth[0].encap decapPk:sum(packetBytes) 496546
attr interpolationmode none
attr source decapPk
attr title "packets decapsulated, sum(packetBytes)"
scalar BusLAN.host[3].eth[0].encap encapPk:count 699
attr interpolationmode none
attr source encapPk
attr title "packets encapsulated, count"
scalar BusLAN.host[3].eth[0].encap encapPk:sum(packetBytes) 496546
attr interpolationmode none
attr source encapPk
attr title "packets encapsulated, sum(packetBytes)"
scalar BusLAN.host[3].pingApp[0] "Pings sent" 189
scalar BusLAN.host[3].pingApp[0] "ping loss rate (%)" 0
scalar BusLAN.host[3].pingApp[0] "ping out-of-order rate (%)" 0
scalar BusLAN.host[3].pingApp[0] pingRxSeq:count 145
attr interpolationmode none
attr title "ping rx seq, count"
scalar BusLAN.host[3].pingApp[0] pingTxSeq:count 145
attr interpolationmode none
attr title "ping tx seq, count"
scalar BusLAN.host[3].pingApp[0] numOutOfOrderArrivals:last nan
attr interpolationmode none
attr title "ping out-of-order arrivals, last"
scalar BusLAN.host[3].pingApp[0] numLost:last nan
attr interpolationmode none
attr title "pings lost, last"
scalar BusLAN.host[3].pingApp[0] rtt:mean 0.00091426084476119
attr interpolationmode none
attr title "ping round-trip time, mean"
attr unit s
scalar BusLAN.host[3].pingApp[1] "Pings sent" 189
scalar BusLAN.host[3].pingApp[1] "ping loss rate (%)" 0
scalar BusLAN.host[3].pingApp[1] "ping out-of-order rate (%)" 0
scalar BusLAN.host[3].pingApp[1] pingRxSeq:count 147
attr interpolationmode none
attr title "ping rx seq, count"
scalar BusLAN.host[3].pingApp[1] pingTxSeq:count 147
attr interpolationmode none
attr title "ping tx seq, count"
scalar BusLAN.host[3].pingApp[1] numOutOfOrderArrivals:last nan
attr interpolationmode none
attr title "ping out-of-order arrivals, last"
scalar BusLAN.host[3].pingApp[1] numLost:last nan
attr interpolationmode none
attr title "pings lost, last"
scalar BusLAN.host[3].pingApp[1] rtt:mean 0.0015879755900076
attr interpolationmode none
attr title "ping round-trip time, mean"
attr unit s
scalar BusLAN.host[4].networkLayer.arp sentReply:count 0
attr title "ARP replies sent, count"
scalar BusLAN.host[4].networkLayer.arp sentReq:count 0
attr title "ARP request sent, count"
scalar BusLAN.host[4].networkLayer.arp failedARPResolution:count 0
attr title "ARP failed resolutions, count"
scalar BusLAN.host[4].networkLayer.arp completedARPResolution:count 0
attr title "ARP completed resolutions, count"
scalar BusLAN.host[4].networkLayer.arp initiatedARPResolution:count 0
attr title "ARP initiated resolutions, count"
scalar BusLAN.host[4].lo0.lo droppedPkBitError:count 0
attr interpolationmode none
attr source dropPkBitError
attr title "packets dropped/bit error, count"
scalar BusLAN.host[4].lo0.lo droppedPkBitError:sum(packetBytes) 0
attr interpolationmode none
attr source dropPkBitError
attr title "packets dropped/bit error, sum(packetBytes)"
scalar BusLAN.host[4].lo0.lo rcvdPkFromHL:count 70
attr interpolationmode none
attr source packetReceivedFromUpper
attr title "packets received from higher layer, count"
scalar BusLAN.host[4].lo0.lo rcvdPkFromHL:sum(packetBytes) 62150
attr interpolationmode none
attr source packetReceivedFromUpper
attr title "packets received from higher layer, sum(packetBytes)"
scalar BusLAN.host[4].lo0.lo passedUpPk:count 70
attr interpolationmode none
attr source packetSentToUpper
attr title "packets passed to higher layer, count"
scalar BusLAN.host[4].lo0.lo passedUpPk:sum(packetBytes) 62150
attr interpolationmode none
attr source packetSentToUpper
attr title "packets passed to higher layer, sum(packetBytes)"
scalar BusLAN.host[4].eth[0].queue.pauseQueue queueLength:max nan
attr interpolationmode sample-hold
attr title "queue length, max"
scalar BusLAN.host[4].eth[0].queue.pauseQueue queueLength:timeavg nan
attr interpolationmode sample-hold
attr title "queue length, timeavg"
statistic BusLAN.host[4].eth[0].queue.pauseQueue queueingTime:histogram
field count 0
field mean nan
field stddev nan
field min nan
field max nan
field sum 0
field sqrsum 0
attr interpolationmode none
attr title "queueing time, histogram"
bin	-inf	0
bin	-0.5	0
bin	-0.46666666666667	0
bin	-0.43333333333333	0
bin	-0.4	0
bin	-0.36666666666667	0
bin	-0.33333333333333	0
bin	-0.3	0
bin	-0.26666666666667	0
bin	-0.23333333333333	0
bin	-0.2	0
bin	-0.16666666666667	0
bin	-0.13333333333333	0
bin	-0.1	0
bin	-0.066666666666667	0
bin	-0.033333333333333	0
bin	0	0
bin	0.033333333333333	0
bin	0.066666666666667	0
bin	0.1	0
bin	0.13333333333333	0
bin	0.16666666666667	0
bin	0.2	0
bin	0.23333333333333	0
bin	0.26666666666667	0
bin	0.3	0
bin	0.33333333333333	0
bin	0.36666666666667	0
bin	0.4	0
bin	0.43333333333333	0
bin	0.46666666666667	0
bin	0.5	0
scalar BusLAN.host[4].eth[0].queue.pauseQueue dropPk:count 0
attr interpolationmode none
attr source dropPkByQueue
attr title "dropped packets, count"
scalar BusLAN.host[4].eth[0].queue.pauseQueue dropPk:sum(packetBytes) 0
attr interpolationmode none
attr source dropPkByQueue
attr title "dropped packets, sum(packetBytes)"
scalar BusLAN.host[4].eth[0].queue.pauseQueue rcvdPk:count 0
attr interpolationmode none
attr title "received packets, count"
scalar BusLAN.host[4].eth[0].queue.pauseQueue rcvdPk:sum(packetBytes) 0
attr interpolationmode none
attr title "received packets, sum(packetBytes)"
scalar BusLAN.host[4].eth[0].queue.dataQueue queueLength:max 3
attr interpolationmode sample-hold
attr title "queue length, max"
scalar BusLAN.host[4].eth[0].queue.dataQueue queueLength:timeavg 0.013038968219063
attr interpolationmode sample-hold
attr title "queue length, timeavg"
statistic BusLAN.host[4].eth[0].queue.dataQueue queueingTime:histogram
field count 737
field mean 0.00026536890166893
field stddev 0.0003972462210544
field min 0
field max 0.001834111298
field sum 0.19557688053
field sqrsum 0.00016804417824259
attr interpolationmode none
attr title "queueing time, histogram"
bin	-inf	0
bin	-0.000513061265	0
bin	-0.00044465309633333	0
bin	-0.00037624492766667	0
bin	-0.000307836759	0
bin	-0.00023942859033333	0
bin	-0.00017102042166667	0
bin	-0.000102612253	0
bin	-3.4204084333333e-005	506
bin	3.4204084333333e-005	0
bin	0.000102612253	0
bin	0.00017102042166667	2
bin	0.00023942859033333	0
bin	0.000307836759	0
bin	0.00037624492766667	1
bin	0.00044465309633333	1
bin	0.000513061265	0
bin	0.00058146943366667	0
bin	0.00064987760233333	1
bin	0.000718285771	0
bin	0.00078669393966667	219
bin	0.00085510210833333	0
bin	0.000923510277	1
bin	0.00099191844566667	2
bin	0.0010603266143333	2
bin	0.001128734783	0
bin	0.0011971429516667	1
bin	0.0012655511203333	0
bin	0.001333959289	0
bin	0.0014023674576667	0
bin	0.0014707756263333	0
bin	0.001539183795	1
scalar BusLAN.host[4].eth[0].queue.dataQueue dropPk:count 0
attr interpolationmode none
attr source dropPkByQueue
attr title "dropped packets, count"
scalar BusLAN.host[4].eth[0].queue.dataQueue dropPk:sum(packetBytes) 0
attr interpolationmode none
attr source dropPkByQueue
attr title "dropped packets, sum(packetBytes)"
scalar BusLAN.host[4].eth[0].queue.dataQueue rcvdPk:count 737
attr interpolationmode none
attr title "received packets, count"
scalar BusLAN.host[4].eth[0].queue.dataQueue rcvdPk:sum(packetBytes) 591057
attr interpolationmode none
attr title "received packets, sum(packetBytes)"
scalar BusLAN.host[4].eth[0].mac "simulated time" 20
scalar BusLAN.host[4].eth[0].mac full-duplex 1
scalar BusLAN.host[4].eth[0].mac "frames/sec sent" 48.45
scalar BusLAN.host[4].eth[0].mac "frames/sec rcvd" 50.25
scalar BusLAN.host[4].eth[0].mac "bits/sec sent" 308137.6
scalar BusLAN.host[4].eth[0].mac "bits/sec rcvd" 309059.2
scalar BusLAN.host[4].eth[0].mac "rx channel idle (%)" 76.1652
scalar BusLAN.host[4].eth[0].mac "rx channel utilization (%)" 23.8348
scalar BusLAN.host[4].eth[0].mac rxPkFromHL:count 737
attr interpolationmode none
attr source rxPkFromHL
attr title "packet bytes from higher layer, count"
scalar BusLAN.host[4].eth[0].mac rxPkFromHL:sum(packetBytes) 591057
attr interpolationmode none
attr source rxPkFromHL
attr title "packet bytes from higher layer, sum(packetBytes)"
scalar BusLAN.host[4].eth[0].mac rxPausePkUnits:count 0
attr interpolationmode none
attr title "pause units received, count"
scalar BusLAN.host[4].eth[0].mac rxPausePkUnits:sum 0
attr interpolationmode none
attr title "pause units received, sum"
scalar BusLAN.host[4].eth[0].mac txPausePkUnits:count 0
attr interpolationmode none
attr title "pause units sent, count"
scalar BusLAN.host[4].eth[0].mac txPausePkUnits:sum 0
attr interpolationmode none
attr title "pause units sent, sum"
scalar BusLAN.host[4].eth[0].mac txPk:count 737
attr interpolationmode none
attr source txPk
attr title "packets transmitted, count"
scalar BusLAN.host[4].eth[0].mac txPk:sum(packetBytes) 591057
attr interpolationmode none
attr source txPk
attr title "packets transmitted, sum(packetBytes)"
scalar BusLAN.host[4].eth[0].mac droppedPkNotForUs:count 5529
attr interpolationmode none
attr source dropPkNotForUs
attr title "packets dropped/not for us, count"
scalar BusLAN.host[4].eth[0].mac droppedPkNotForUs:sum(packetBytes) 3835300
attr interpolationmode none
attr source dropPkNotForUs
attr title "packets dropped/not for us, sum(packetBytes)"
scalar BusLAN.host[4].eth[0].mac droppedPkBitError:count 0
attr interpolationmode none
attr source dropPkBitError
attr title "packets dropped/bit error, count"
scalar BusLAN.host[4].eth[0].mac droppedPkBitError:sum(packetBytes) 0
attr interpolationmode none
attr source dropPkBitError
attr title "packets dropped/bit error, sum(packetBytes)"
scalar BusLAN.host[4].eth[0].mac droppedPkIfaceDown:count 0
attr interpolationmode none
attr source dropPkIfaceDown
attr title "packets dropped/interface down, count"
scalar BusLAN.host[4].eth[0].mac droppedPkIfaceDown:sum(packetBytes) 0
attr interpolationmode none
attr source dropPkIfaceDown
attr title "packets dropped/interface down, sum(packetBytes)"
scalar BusLAN.host[4].eth[0].mac rxPkOk:count 737
attr interpolationmode none
attr source rxPkOk
attr title "packets received OK, count"
scalar BusLAN.host[4].eth[0].mac rxPkOk:sum(packetBytes) 591057
attr interpolationmode none
attr source rxPkOk
attr title "packets received OK, sum(packetBytes)"
scalar BusLAN.host[4].eth[0].mac passedUpPk:count 737
attr interpolationmode none
attr source packetSentToUpper
attr title "packets passed to higher layer, count"
scalar BusLAN.host[4].eth[0].mac passedUpPk:sum(packetBytes) 591057
attr interpolationmode none
attr source packetSentToUpper
attr title "packets passed to higher layer, sum(packetBytes)"
scalar BusLAN.host[4].eth[0].encap pauseSent:count 0
attr title "pause sent, count"
scalar BusLAN.host[4].eth[0].encap pauseSent:sum 0
attr title "pause sent, sum"
scalar BusLAN.host[4].eth[0].encap decapPk:count 737
attr interpolationmode none
attr source decapPk
attr title "packets decapsulated, count"
scalar BusLAN.host[4].eth[0].encap decapPk:sum(packetBytes) 577791
attr interpolationmode none
attr source decapPk
attr title "packets decapsulated, sum(packetBytes)"
scalar BusLAN.host[4].eth[0].encap encapPk:count 737
attr interpolationmode none
attr source encapPk
attr title "packets encapsulated, count"
scalar BusLAN.host[4].eth[0].encap encapPk:sum(packetBytes) 577791
attr interpolationmode none
attr source encapPk
attr title "packets encapsulated, sum(packetBytes)"
scalar BusLAN.host[4].pingApp[0] "Pings sent" 192
scalar BusLAN.host[4].pingApp[0] "ping loss rate (%)" 0
scalar BusLAN.host[4].pingApp[0] "ping out-of-order rate (%)" 0
scalar BusLAN.host[4].pingApp[0] pingRxSeq:count 147
attr interpolationmode none
attr title "ping rx seq, count"
scalar BusLAN.host[4].pingApp[0] pingTxSeq:count 147
attr interpolationmode none
attr title "ping tx seq, count"
scalar BusLAN.host[4].pingApp[0] numOutOfOrderArrivals:last nan
attr interpolationmode none
attr title "ping out-of-order arrivals, last"
scalar BusLAN.host[4].pingApp[0] numLost:last nan
attr interpolationmode none
attr title "pings lost, last"
scalar BusLAN.host[4].pingApp[0] rtt:mean 0.0016214449174848
attr interpolationmode none
attr title "ping round-trip time, mean"
attr unit s
scalar BusLAN.host[4].pingApp[1] "Pings sent" 188
scalar BusLAN.host[4].pingApp[1] "ping loss rate (%)" 0
scalar BusLAN.host[4].pingApp[1] "ping out-of-order rate (%)" 0
scalar BusLAN.host[4].pingApp[1] pingRxSeq:count 146
attr interpolationmode none
attr title "ping rx seq, count"
scalar BusLAN.host[4].pingApp[1] pingTxSeq:count 146
attr interpolationmode none
attr title "ping tx seq, count"
scalar BusLAN.host[4].pingApp[1] numOutOfOrderArrivals:last nan
attr interpolationmode none
attr title "ping out-of-order arrivals, last"
scalar BusLAN.host[4].pingApp[1] numLost:last nan
attr interpolationmode none
attr title "pings lost, last"
scalar BusLAN.host[4].pingApp[1] rtt:mean 0.0027357382645515
attr interpolationmode none
attr title "ping round-trip time, mean"
attr unit s
scalar BusLAN.host[5].networkLayer.arp sentReply:count 0
attr title "ARP replies sent, count"
scalar BusLAN.host[5].networkLayer.arp sentReq:count 0
attr title "ARP request sent, count"
scalar BusLAN.host[5].networkLayer.arp failedARPResolution:count 0
attr title "ARP failed resolutions, count"
scalar BusLAN.host[5].networkLayer.arp completedARPResolution:count 0
attr title "ARP completed resolutions, count"
scalar BusLAN.host[5].networkLayer.arp initiatedARPResolution:count 0
attr title "ARP initiated resolutions, count"
scalar BusLAN.host[5].lo0.lo droppedPkBitError:count 0
attr interpolationmode none
attr source dropPkBitError
attr title "packets dropped/bit error, count"
scalar BusLAN.host[5].lo0.lo droppedPkBitError:sum(packetBytes) 0
attr interpolationmode none
attr source dropPkBitError
attr title "packets dropped/bit error, sum(packetBytes)"
scalar BusLAN.host[5].lo0.lo rcvdPkFromHL:count 98
attr interpolationmode none
attr source packetReceivedFromUpper
attr title "packets received from higher layer, count"
scalar BusLAN.host[5].lo0.lo rcvdPkFromHL:sum(packetBytes) 66276
attr interpolationmode none
attr source packetReceivedFromUpper
attr title "packets received from higher layer, sum(packetBytes)"
scalar BusLAN.host[5].lo0.lo passedUpPk:count 98
attr interpolationmode none
attr source packetSentToUpper
attr title "packets passed to higher layer, count"
scalar BusLAN.host[5].lo0.lo passedUpPk:sum(packetBytes) 66276
attr interpolationmode none
attr source packetSentToUpper
attr title "packets passed to higher layer, sum(packetBytes)"
scalar BusLAN.host[5].eth[0].queue.pauseQueue queueLength:max nan
attr interpolationmode sample-hold
attr title "queue length, max"
scalar BusLAN.host[5].eth[0].queue.pauseQueue queueLength:timeavg nan
attr interpolationmode sample-hold
attr title "queue length, timeavg"
statistic BusLAN.host[5].eth[0].queue.pauseQueue queueingTime:histogram
field count 0
field mean nan
field stddev nan
field min nan
field max nan
field sum 0
field sqrsum 0
attr interpolationmode none
attr title "queueing time, histogram"
bin	-inf	0
bin	-0.5	0
bin	-0.46666666666667	0
bin	-0.43333333333333	0
bin	-0.4	0
bin	-0.36666666666667	0
bin	-0.33333333333333	0
bin	-0.3	0
bin	-0.26666666666667	0
bin	-0.23333333333333	0
bin	-0.2	0
bin	-0.16666666666667	0
bin	-0.13333333333333	0
bin	-0.1	0
bin	-0.066666666666667	0
bin	-0.033333333333333	0
bin	0	0
bin	0.033333333333333	0
bin	0.066666666666667	0
bin	0.1	0
bin	0.13333333333333	0
bin	0.16666666666667	0
bin	0.2	0
bin	0.23333333333333	0
bin	0.26666666666667	0
bin	0.3	0
bin	0.33333333333333	0
bin	0.36666666666667	0
bin	0.4	0
bin	0.43333333333333	0
bin	0.46666666666667	0
bin	0.5	0
scalar BusLAN.host[5].eth[0].queue.pauseQueue dropPk:count 0
attr interpolationmode none
attr source dropPkByQueue
attr title "dropped packets, count"
scalar BusLAN.host[5].eth[0].queue.pauseQueue dropPk:sum(packetBytes) 0
attr interpolationmode none
attr source dropPkByQueue
attr title "dropped packets, sum(packetBytes)"
scalar BusLAN.host[5].eth[0].queue.pauseQueue rcvdPk:count 0
attr interpolationmode none
attr title "received packets, count"
scalar BusLAN.host[5].eth[0].queue.pauseQueue rcvdPk:sum(packetBytes) 0
attr interpolationmode none
attr title "received packets, sum(packetBytes)"
scalar BusLAN.host[5].eth[0].queue.dataQueue queueLength:max 2
attr interpolationmode sample-hold
attr title "queue length, max"
scalar BusLAN.host[5].eth[0].queue.dataQueue queueLength:timeavg 0.012012145567476
attr interpolationmode sample-hold
attr title "queue length, timeavg"
statistic BusLAN.host[5].eth[0].queue.dataQueue queueingTime:histogram
field count 713
field mean 0.00025173884860168
field stddev 0.00038827605915032
field min 0
field max 0.001419822718
field sum 0.179489799053
field sqrsum 0.00015252446360317
attr interpolationmode none
attr title "queueing time, histogram"
bin	-inf	0
bin	-0.000504424293	0
bin	-0.0004371677206	0
bin	-0.0003699111482	0
bin	-0.0003026545758	0
bin	-0.0002353980034	0
bin	-0.000168141431	0
bin	-0.0001008848586	0
bin	-3.36282862e-005	497
bin	3.36282862e-005	0
bin	0.0001008848586	2
bin	0.000168141431	1
bin	0.0002353980034	0
bin	0.0003026545758	2
bin	0.0003699111482	1
bin	0.0004371677206	3
bin	0.000504424293	1
bin	0.0005716808654	1
bin	0.0006389374378	0
bin	0.0007061940102	0
bin	0.0007734505826	0
bin	0.000840707155	200
bin	0.0009079637274	0
bin	0.0009752202998	1
bin	0.0010424768722	0
bin	0.0011097334446	1
bin	0.001176990017	1
bin	0.0012442465894	1
bin	0.0013115031618	0
bin	0.0013787597342	1
bin	0.0014460163066	0
bin	0.001513272879	0
scalar BusLAN.host[5].eth[0].queue.dataQueue dropPk:count 0
attr interpolationmode none
attr source dropPkByQueue
attr title "dropped packets, count"
scalar BusLAN.host[5].eth[0].queue.dataQueue dropPk:sum(packetBytes) 0
attr interpolationmode none
attr source dropPkByQueue
attr title "dropped packets, sum(packetBytes)"
scalar BusLAN.host[5].eth[0].queue.dataQueue rcvdPk:count 713
attr interpolationmode none
attr title "received packets, count"
scalar BusLAN.host[5].eth[0].queue.dataQueue rcvdPk:sum(packetBytes) 512666
attr interpolationmode none
attr title "received packets, sum(packetBytes)"
scalar BusLAN.host[5].eth[0].mac "simulated time" 20
scalar BusLAN.host[5].eth[0].mac full-duplex 1
scalar BusLAN.host[5].eth[0].mac "frames/sec sent" 47.1
scalar BusLAN.host[5].eth[0].mac "frames/sec rcvd" 48.85
scalar BusLAN.host[5].eth[0].mac "bits/sec sent" 267060
scalar BusLAN.host[5].eth[0].mac "bits/sec rcvd" 267708
scalar BusLAN.host[5].eth[0].mac "rx channel idle (%)" 75.75356
scalar BusLAN.host[5].eth[0].mac "rx channel utilization (%)" 24.24644
scalar BusLAN.host[5].eth[0].mac rxPkFromHL:count 713
attr interpolationmode none
attr source rxPkFromHL
attr title "packet bytes from higher layer, count"
scalar BusLAN.host[5].eth[0].mac rxPkFromHL:sum(packetBytes) 512666
attr interpolationmode none
attr source rxPkFromHL
attr title "packet bytes from higher layer, sum(packetBytes)"
scalar BusLAN.host[5].eth[0].mac rxPausePkUnits:count 0
attr interpolationmode none
attr title "pause units received, count"
scalar BusLAN.host[5].eth[0].mac rxPausePkUnits:sum 0
attr interpolationmode none
attr title "pause units received, sum"
scalar BusLAN.host[5].eth[0].mac txPausePkUnits:count 0
attr interpolationmode none
attr title "pause units sent, count"
scalar BusLAN.host[5].eth[0].mac txPausePkUnits:sum 0
attr interpolationmode none
attr title "pause units sent, sum"
scalar BusLAN.host[5].eth[0].mac txPk:count 713
attr interpolationmode none
attr source txPk
attr title "packets transmitted, count"
scalar BusLAN.host[5].eth[0].mac txPk:sum(packetBytes) 512666
attr interpolationmode none
attr source txPk
attr title "packets transmitted, sum(packetBytes)"
scalar BusLAN.host[5].eth[0].mac droppedPkNotForUs:count 5578
attr interpolationmode none
attr source dropPkNotForUs
attr title "packets dropped/not for us, count"
scalar BusLAN.host[5].eth[0].mac droppedPkNotForUs:sum(packetBytes) 3992766
attr interpolationmode none
attr source dropPkNotForUs
attr title "packets dropped/not for us, sum(packetBytes)"
scalar BusLAN.host[5].eth[0].mac droppedPkBitError:count 0
attr interpolationmode none
attr source dropPkBitError
attr title "packets dropped/bit error, count"
scalar BusLAN.host[5].eth[0].mac droppedPkBitError:sum(packetBytes) 0
attr interpolationmode none
attr source dropPkBitError
attr title "packets dropped/bit error, sum(packetBytes)"
scalar BusLAN.host[5].eth[0].mac droppedPkIfaceDown:count 0
attr interpolationmode none
attr source dropPkIfaceDown
attr title "packets dropped/interface down, count"
scalar BusLAN.host[5].eth[0].mac droppedPkIfaceDown:sum(packetBytes) 0
attr interpolationmode none
attr source dropPkIfaceDown
attr title "packets dropped/interface down, sum(packetBytes)"
scalar BusLAN.host[5].eth[0].mac rxPkOk:count 712
attr interpolationmode none
attr source rxPkOk
attr title "packets received OK, count"
scalar BusLAN.host[5].eth[0].mac rxPkOk:sum(packetBytes) 511982
attr interpolationmode none
attr source rxPkOk
attr title "packets received OK, sum(packetBytes)"
scalar BusLAN.host[5].eth[0].mac passedUpPk:count 712
attr interpolationmode none
attr source packetSentToUpper
attr title "packets passed to higher layer, count"
scalar BusLAN.host[5].eth[0].mac passedUpPk:sum(packetBytes) 511982
attr interpolationmode none
attr source packetSentToUpper
attr title "packets passed to higher layer, sum(packetBytes)"
scalar BusLAN.host[5].eth[0].encap pauseSent:count 0
attr title "pause sent, count"
scalar BusLAN.host[5].eth[0].encap pauseSent:sum 0
attr title "pause sent, sum"
scalar BusLAN.host[5].eth[0].encap decapPk:count 712
attr interpolationmode none
attr source decapPk
attr title "packets decapsulated, count"
scalar BusLAN.host[5].eth[0].encap decapPk:sum(packetBytes) 499166
attr interpolationmode none
attr source decapPk
attr title "packets decapsulated, sum(packetBytes)"
scalar BusLAN.host[5].eth[0].encap encapPk:count 713
attr interpolationmode none
attr source encapPk
attr title "packets encapsulated, count"
scalar BusLAN.host[5].eth[0].encap encapPk:sum(packetBytes) 499832
attr interpolationmode none
attr source encapPk
attr title "packets encapsulated, sum(packetBytes)"
scalar BusLAN.host[5].pingApp[0] "Pings sent" 196
scalar BusLAN.host[5].pingApp[0] "ping loss rate (%)" 0
scalar BusLAN.host[5].pingApp[0] "ping out-of-order rate (%)" 0
scalar BusLAN.host[5].pingApp[0] pingRxSeq:count 151
attr interpolationmode none
attr title "ping rx seq, count"
scalar BusLAN.host[5].pingApp[0] pingTxSeq:count 151
attr interpolationmode none
attr title "ping tx seq, count"
scalar BusLAN.host[5].pingApp[0] numOutOfOrderArrivals:last nan
attr interpolationmode none
attr title "ping out-of-order arrivals, last"
scalar BusLAN.host[5].pingApp[0] numLost:last nan
attr interpolationmode none
attr title "pings lost, last"
scalar BusLAN.host[5].pingApp[0] rtt:mean 0.0022903259747594
attr interpolationmode none
attr title "ping round-trip time, mean"
attr unit s
scalar BusLAN.host[5].pingApp[1] "Pings sent" 193
scalar BusLAN.host[5].pingApp[1] "ping loss rate (%)" 0.51813471502591
scalar BusLAN.host[5].pingApp[1] "ping out-of-order rate (%)" 0
scalar BusLAN.host[5].pingApp[1] pingRxSeq:count 147
attr interpolationmode none
attr title "ping rx seq, count"
scalar BusLAN.host[5].pingApp[1] pingTxSeq:count 148
attr interpolationmode none
attr title "ping tx seq, count"
scalar BusLAN.host[5].pingApp[1] numOutOfOrderArrivals:last nan
attr interpolationmode none
attr title "ping out-of-order arrivals, last"
scalar BusLAN.host[5].pingApp[1] numLost:last nan
attr interpolationmode none
attr title "pings lost, last"
scalar BusLAN.host[5].pingApp[1] rtt:mean 0.0011268661524925
attr interpolationmode none
attr title "ping round-trip time, mean"
attr unit s
scalar BusLAN.host[6].networkLayer.arp sentReply:count 0
attr title "ARP replies sent, count"
scalar BusLAN.host[6].networkLayer.arp sentReq:count 0
attr title "ARP request sent, count"
scalar BusLAN.host[6].networkLayer.arp failedARPResolution:count 0
attr title "ARP failed resolutions, count"
scalar BusLAN.host[6].networkLayer.arp completedARPResolution:count 0
attr title "ARP completed resolutions, count"
scalar BusLAN.host[6].networkLayer.arp initiatedARPResolution:count 0
attr title "ARP initiated resolutions, count"
scalar BusLAN.host[6].lo0.lo droppedPkBitError:count 0
attr interpolationmode none
attr source dropPkBitError
attr title "packets dropped/bit error, count"
scalar BusLAN.host[6].lo0.lo droppedPkBitError:sum(packetBytes) 0
attr interpolationmode none
attr source dropPkBitError
attr title "packets dropped/bit error, sum(packetBytes)"
scalar BusLAN.host[6].lo0.lo rcvdPkFromHL:count 120
attr interpolationmode none
attr source packetReceivedFromUpper
attr title "packets received from higher layer, count"
scalar BusLAN.host[6].lo0.lo rcvdPkFromHL:sum(packetBytes) 62120
attr interpolationmode none
attr source packetReceivedFromUpper
attr title "packets received from higher layer, sum(packetBytes)"
scalar BusLAN.host[6].lo0.lo passedUpPk:count 120
attr interpolationmode none
attr source packetSentToUpper
attr title "packets passed to higher layer, count"
scalar BusLAN.host[6].lo0.lo passedUpPk:sum(packetBytes) 62120
attr interpolationmode none
attr source packetSentToUpper
attr title "packets passed to higher layer, sum(packetBytes)"
scalar BusLAN.host[6].eth[0].queue.pauseQueue queueLength:max nan
attr interpolationmode sample-hold
attr title "queue length, max"
scalar BusLAN.host[6].eth[0].queue.pauseQueue queueLength:timeavg nan
attr interpolationmode sample-hold
attr title "queue length, timeavg"
statistic BusLAN.host[6].eth[0].queue.pauseQueue queueingTime:histogram
field count 0
field mean nan
field stddev nan
field min nan
field max nan
field sum 0
field sqrsum 0
attr interpolationmode none
attr title "queueing time, histogram"
bin	-inf	0
bin	-0.5	0
bin	-0.46666666666667	0
bin	-0.43333333333333	0
bin	-0.4	0
bin	-0.36666666666667	0
bin	-0.33333333333333	0
bin	-0.3	0
bin	-0.26666666666667	0
bin	-0.23333333333333	0
bin	-0.2	0
bin	-0.16666666666667	0
bin	-0.13333333333333	0
bin	-0.1	0
bin	-0.066666666666667	0
bin	-0.033333333333333	0
bin	0	0
bin	0.033333333333333	0
bin	0.066666666666667	0
bin	0.1	0
bin	0.13333333333333	0
bin	0.16666666666667	0
bin	0.2	0
bin	0.23333333333333	0
bin	0.26666666666667	0
bin	0.3	0
bin	0.33333333333333	0
bin	0.36666666666667	0
bin	0.4	0
bin	0.43333333333333	0
bin	0.46666666666667	0
bin	0.5	0
scalar BusLAN.host[6].eth[0].queue.pauseQueue dropPk:count 0
attr interpolationmode none
attr source dropPkByQueue
attr title "dropped packets, count"
scalar BusLAN.host[6].eth[0].queue.pauseQueue dropPk:sum(packetBytes) 0
attr interpolationmode none
attr source dropPkByQueue
attr title "dropped packets, sum(packetBytes)"
scalar BusLAN.host[6].eth[0].queue.pauseQueue rcvdPk:count 0
attr interpolationmode none
attr title "received packets, count"
scalar BusLAN.host[6].eth[0].queue.pauseQueue rcvdPk:sum(packetBytes) 0
attr interpolationmode none
attr title "received packets, sum(packetBytes)"
scalar BusLAN.host[6].eth[0].queue.dataQueue queueLength:max 3
attr interpolationmode sample-hold
attr title "queue length, max"
scalar BusLAN.host[6].eth[0].queue.dataQueue queueLength:timeavg 0.012288724377155
attr interpolationmode sample-hold
attr title "queue length, timeavg"
statistic BusLAN.host[6].eth[0].queue.dataQueue queueingTime:histogram
field count 726
field mean 0.00025289838169972
field stddev 0.00038817833117286
field min 0
field max 0.001393446756
field sum 0.183604225114
field sqrsum 0.00015567796357887
attr interpolationmode none
attr title "queueing time, histogram"
bin	-inf	0
bin	-0.0004232	0
bin	-0.00036677333333333	0
bin	-0.00031034666666667	0
bin	-0.00025392	0
bin	-0.00019749333333333	0
bin	-0.00014106666666667	0
bin	-8.464e-005	0
bin	-2.8213333333333e-005	506
bin	2.8213333333333e-005	0
bin	8.464e-005	0
bin	0.00014106666666667	1
bin	0.00019749333333333	1
bin	0.00025392	0
bin	0.00031034666666667	2
bin	0.00036677333333333	1
bin	0.0004232	1
bin	0.00047962666666667	0
bin	0.00053605333333333	2
bin	0.00059248	0
bin	0.00064890666666667	1
bin	0.00070533333333333	1
bin	0.00076176	0
bin	0.00081818666666667	207
bin	0.00087461333333333	0
bin	0.00093104	0
bin	0.00098746666666667	0
bin	0.0010438933333333	1
bin	0.00110032	0
bin	0.0011567466666667	0
bin	0.0012131733333333	0
bin	0.0012696	2
scalar BusLAN.host[6].eth[0].queue.dataQueue dropPk:count 0
attr interpolationmode none
attr source dropPkByQueue
attr title "dropped packets, count"
scalar BusLAN.host[6].eth[0].queue.dataQueue dropPk:sum(packetBytes) 0
attr interpolationmode none
attr source dropPkByQueue
attr title "dropped packets, sum(packetBytes)"
scalar BusLAN.host[6].eth[0].queue.dataQueue rcvdPk:count 726
attr interpolationmode none
attr title "received packets, count"
scalar BusLAN.host[6].eth[0].queue.dataQueue rcvdPk:sum(packetBytes) 463055
attr interpolationmode none
attr title "received packets, sum(packetBytes)"
scalar BusLAN.host[6].eth[0].mac "simulated time" 20
scalar BusLAN.host[6].eth[0].mac full-duplex 1
scalar BusLAN.host[6].eth[0].mac "frames/sec sent" 47.4
scalar BusLAN.host[6].eth[0].mac "frames/sec rcvd" 49.2
scalar BusLAN.host[6].eth[0].mac "bits/sec sent" 238958.8
scalar BusLAN.host[6].eth[0].mac "bits/sec rcvd" 239880.4
scalar BusLAN.host[6].eth[0].mac "rx channel idle (%)" 75.47274
scalar BusLAN.host[6].eth[0].mac "rx channel utilization (%)" 24.52726
scalar BusLAN.host[6].eth[0].mac rxPkFromHL:count 726
attr interpolationmode none
attr source rxPkFromHL
attr title "packet bytes from higher layer, count"
scalar BusLAN.host[6].eth[0].mac rxPkFromHL:sum(packetBytes) 463055
attr interpolationmode none
attr source rxPkFromHL
attr title "packet bytes from higher layer, sum(packetBytes)"
scalar BusLAN.host[6].eth[0].mac rxPausePkUnits:count 0
attr interpolationmode none
attr title "pause units received, count"
scalar BusLAN.host[6].eth[0].mac rxPausePkUnits:sum 0
attr interpolationmode none
attr title "pause units received, sum"
scalar BusLAN.host[6].eth[0].mac txPausePkUnits:count 0
attr interpolationmode none
attr title "pause units sent, count"
scalar BusLAN.host[6].eth[0].mac txPausePkUnits:sum 0
attr interpolationmode none
attr title "pause units sent, sum"
scalar BusLAN.host[6].eth[0].mac txPk:count 726
attr interpolationmode none
attr source txPk
attr title "packets transmitted, count"
scalar BusLAN.host[6].eth[0].mac txPk:sum(packetBytes) 463055
attr interpolationmode none
attr source txPk
attr title "packets transmitted, sum(packetBytes)"
scalar BusLAN.host[6].eth[0].mac droppedPkNotForUs:count 5551
attr interpolationmode none
attr source dropPkNotForUs
attr title "packets dropped/not for us, count"
scalar BusLAN.host[6].eth[0].mac droppedPkNotForUs:sum(packetBytes) 4091304
attr interpolationmode none
attr source dropPkNotForUs
attr title "packets dropped/not for us, sum(packetBytes)"
scalar BusLAN.host[6].eth[0].mac droppedPkBitError:count 0
attr interpolationmode none
attr source dropPkBitError
attr title "packets dropped/bit error, count"
scalar BusLAN.host[6].eth[0].mac droppedPkBitError:sum(packetBytes) 0
attr interpolationmode none
attr source dropPkBitError
attr title "packets dropped/bit error, sum(packetBytes)"
scalar BusLAN.host[6].eth[0].mac droppedPkIfaceDown:count 0
attr interpolationmode none
attr source dropPkIfaceDown
attr title "packets dropped/interface down, count"
scalar BusLAN.host[6].eth[0].mac droppedPkIfaceDown:sum(packetBytes) 0
attr interpolationmode none
attr source dropPkIfaceDown
attr title "packets dropped/interface down, sum(packetBytes)"
scalar BusLAN.host[6].eth[0].mac rxPkOk:count 726
attr interpolationmode none
attr source rxPkOk
attr title "packets received OK, count"
scalar BusLAN.host[6].eth[0].mac rxPkOk:sum(packetBytes) 463055
attr interpolationmode none
attr source rxPkOk
attr title "packets received OK, sum(packetBytes)"
scalar BusLAN.host[6].eth[0].mac passedUpPk:count 726
attr interpolationmode none
attr source packetSentToUpper
attr title "packets passed to higher layer, count"
scalar BusLAN.host[6].eth[0].mac passedUpPk:sum(packetBytes) 463055
attr interpolationmode none
attr source packetSentToUpper
attr title "packets passed to higher layer, sum(packetBytes)"
scalar BusLAN.host[6].eth[0].encap pauseSent:count 0
attr title "pause sent, count"
scalar BusLAN.host[6].eth[0].encap pauseSent:sum 0
attr title "pause sent, sum"
scalar BusLAN.host[6].eth[0].encap decapPk:count 726
attr interpolationmode none
attr source decapPk
attr title "packets decapsulated, count"
scalar BusLAN.host[6].eth[0].encap decapPk:sum(packetBytes) 449987
attr interpolationmode none
attr source decapPk
attr title "packets decapsulated, sum(packetBytes)"
scalar BusLAN.host[6].eth[0].encap encapPk:count 726
attr interpolationmode none
attr source encapPk
attr title "packets encapsulated, count"
scalar BusLAN.host[6].eth[0].encap encapPk:sum(packetBytes) 449987
attr interpolationmode none
attr source encapPk
attr title "packets encapsulated, sum(packetBytes)"
scalar BusLAN.host[6].pingApp[0] "Pings sent" 197
scalar BusLAN.host[6].pingApp[0] "ping loss rate (%)" 0
scalar BusLAN.host[6].pingApp[0] "ping out-of-order rate (%)" 0
scalar BusLAN.host[6].pingApp[0] pingRxSeq:count 147
attr interpolationmode none
attr title "ping rx seq, count"
scalar BusLAN.host[6].pingApp[0] pingTxSeq:count 147
attr interpolationmode none
attr title "ping tx seq, count"
scalar BusLAN.host[6].pingApp[0] numOutOfOrderArrivals:last nan
attr interpolationmode none
attr title "ping out-of-order arrivals, last"
scalar BusLAN.host[6].pingApp[0] numLost:last nan
attr interpolationmode none
attr title "pings lost, last"
scalar BusLAN.host[6].pingApp[0] rtt:mean 0.0007408647042126
attr interpolationmode none
attr title "ping round-trip time, mean"
attr unit s
scalar BusLAN.host[6].pingApp[1] "Pings sent" 186
scalar BusLAN.host[6].pingApp[1] "ping loss rate (%)" 0
scalar BusLAN.host[6].pingApp[1] "ping out-of-order rate (%)" 0
scalar BusLAN.host[6].pingApp[1] pingRxSeq:count 144
attr interpolationmode none
attr title "ping rx seq, count"
scalar BusLAN.host[6].pingApp[1] pingTxSeq:count 144
attr interpolationmode none
attr title "ping tx seq, count"
scalar BusLAN.host[6].pingApp[1] numOutOfOrderArrivals:last nan
attr interpolationmode none
attr title "ping out-of-order arrivals, last"
scalar BusLAN.host[6].pingApp[1] numLost:last nan
attr interpolationmode none
attr title "pings lost, last"
scalar BusLAN.host[6].pingApp[1] rtt:mean 0.001932879031371
attr interpolationmode none
attr title "ping round-trip time, mean"
attr unit s
scalar BusLAN.host[7].networkLayer.arp sentReply:count 0
attr title "ARP replies sent, count"
scalar BusLAN.host[7].networkLayer.arp sentReq:count 0
attr title "ARP request sent, count"
scalar BusLAN.host[7].networkLayer.arp failedARPResolution:count 0
attr title "ARP failed resolutions, count"
scalar BusLAN.host[7].networkLayer.arp completedARPResolution:count 0
attr title "ARP completed resolutions, count"
scalar BusLAN.host[7].networkLayer.arp initiatedARPResolution:count 0
attr title "ARP initiated resolutions, count"
scalar BusLAN.host[7].lo0.lo droppedPkBitError:count 0
attr interpolationmode none
attr source dropPkBitError
attr title "packets dropped/bit error, count"
scalar BusLAN.host[7].lo0.lo droppedPkBitError:sum(packetBytes) 0
attr interpolationmode none
attr source dropPkBitError
attr title "packets dropped/bit error, sum(packetBytes)"
scalar BusLAN.host[7].lo0.lo rcvdPkFromHL:count 64
attr interpolationmode none
attr source packetReceivedFromUpper
attr title "packets received from higher layer, count"
scalar BusLAN.host[7].lo0.lo rcvdPkFromHL:sum(packetBytes) 52756
attr interpolationmode none
attr source packetReceivedFromUpper
attr title "packets received from higher layer, sum(packetBytes)"
scalar BusLAN.host[7].lo0.lo passedUpPk:count 64
attr interpolationmode none
attr source packetSentToUpper
attr title "packets passed to higher layer, count"
scalar BusLAN.host[7].lo0.lo passedUpPk:sum(packetBytes) 52756
attr interpolationmode none
attr source packetSentToUpper
attr title "packets passed to higher layer, sum(packetBytes)"
scalar BusLAN.host[7].eth[0].queue.pauseQueue queueLength:max nan
attr interpolationmode sample-hold
attr title "queue length, max"
scalar BusLAN.host[7].eth[0].queue.pauseQueue queueLength:timeavg nan
attr interpolationmode sample-hold
attr title "queue length, timeavg"
statistic BusLAN.host[7].eth[0].queue.pauseQueue queueingTime:histogram
field count 0
field mean nan
field stddev nan
field min nan
field max nan
field sum 0
field sqrsum 0
attr interpolationmode none
attr title "queueing time, histogram"
bin	-inf	0
bin	-0.5	0
bin	-0.46666666666667	0
bin	-0.43333333333333	0
bin	-0.4	0
bin	-0.36666666666667	0
bin	-0.33333333333333	0
bin	-0.3	0
bin	-0.26666666666667	0
bin	-0.23333333333333	0
bin	-0.2	0
bin	-0.16666666666667	0
bin	-0.13333333333333	0
bin	-0.1	0
bin	-0.066666666666667	0
bin	-0.033333333333333	0
bin	0	0
bin	0.033333333333333	0
bin	0.066666666666667	0
bin	0.1	0
bin	0.13333333333333	0
bin	0.16666666666667	0
bin	0.2	0
bin	0.23333333333333	0
bin	0.26666666666667	0
bin	0.3	0
bin	0.33333333333333	0
bin	0.36666666666667	0
bin	0.4	0
bin	0.43333333333333	0
bin	0.46666666666667	0
bin	0.5	0
scalar BusLAN.host[7].eth[0].queue.pauseQueue dropPk:count 0
attr interpolationmode none
attr source dropPkByQueue
attr title "dropped packets, count"
scalar BusLAN.host[7].eth[0].queue.pauseQueue dropPk:sum(packetBytes) 0
attr interpolationmode none
attr source dropPkByQueue
attr title "dropped packets, sum(packetBytes)"
scalar BusLAN.host[7].eth[0].queue.pauseQueue rcvdPk:count 0
attr interpolationmode none
attr title "received packets, count"
scalar BusLAN.host[7].eth[0].queue.pauseQueue rcvdPk:sum(packetBytes) 0
attr interpolationmode none
attr title "received packets, sum(packetBytes)"
[...]
attr interpolationmode sample-hold
attr title "queue length, timeavg"
statistic BusLAN.host[8].eth[0].queue.pauseQueue queueingTime:histogram
field count 0
field mean nan
field stddev nan
field min nan
field max nan
field sum 0
field sqrsum 0
attr interpolationmode none
attr title "queueing time, histogram"
bin	-inf	0
bin	-0.5	0
bin	-0.46666666666667	0
bin	-0.43333333333333	0
bin	-0.4	0
bin	-0.36666666666667	0
bin	-0.33333333333333	0
bin	-0.3	0
bin	-0.26666666666667	0
bin	-0.23333333333333	0
bin	-0.2	0
bin	-0.16666666666667	0
bin	-0.13333333333333	0
bin	-0.1	0
bin	-0.066666666666667	0
bin	-0.033333333333333	0
bin	0	0
bin	0.033333333333333	0
bin	0.066666666666667	0
bin	0.1	0
bin	0.13333333333333	0
bin	0.16666666666667	0
bin	0.2	0
bin	0.23333333333333	0
bin	0.26666666666667	0
bin	0.3	0
bin	0.33333333333333	0
bin	0.36666666666667	0
bin	0.4	0
bin	0.43333333333333	0
bin	0.46666666666667	0
bin	0.5	0
scalar BusLAN.host[8].eth[0].queue.pauseQueue dropPk:count 0
attr interpolationmode none
attr source dropPkByQueue
attr title "dropped packets, count"
scalar BusLAN.host[8].eth[0].queue.pauseQueue dropPk:sum(packetBytes) 0
attr interpolationmode none
attr source dropPkByQueue
attr title "dropped packets, sum(packetBytes)"
scalar BusLAN.host[8].eth[0].queue.pauseQueue rcvdPk:count 0
attr interpolationmode none
attr title "received packets, count"
scalar BusLAN.host[8].eth[0].queue.pauseQueue rcvdPk:sum(packetBytes) 0
attr interpolationmode none
attr title "received packets, sum(packetBytes)"
scalar BusLAN.host[8].eth[0].queue.dataQueue queueLength:max 3
attr interpolationmode sample-hold
attr title "queue length, max"
scalar BusLAN.host[8].eth[0].queue.dataQueue queueLength:timeavg 0.019658226638639
attr interpolationmode sample-hold
attr title "queue length, timeavg"
statistic BusLAN.host[8].eth[0].queue.dataQueue queueingTime:histogram
field count 857
field mean 0.00034342416829638
field stddev 0.00042300146716365
field min 0
field max 0.001857856021
field sum 0.29431451223
field sqrsum 0.00025423900306669
attr interpolationmode none
attr title "queueing time, histogram"
bin	-inf	0
bin	-0.000767569113	0
bin	-0.0006652265646	0
bin	-0.0005628840162	0
bin	-0.0004605414678	0
bin	-0.0003581989194	0
bin	-0.000255856371	0
bin	-0.0001535138226	0
bin	-5.11712742e-005	511
bin	5.11712742e-005	1
bin	0.0001535138226	0
bin	0.000255856371	1
bin	0.0003581989194	1
bin	0.0004605414678	0
bin	0.0005628840162	0
bin	0.0006652265646	4
bin	0.000767569113	333
bin	0.0008699116614	0
bin	0.0009722542098	1
bin	0.0010745967582	0
bin	0.0011769393066	1
bin	0.001279281855	0
bin	0.0013816244034	0
bin	0.0014839669518	2
bin	0.0015863095002	1
bin	0.0016886520486	0
bin	0.001790994597	1
bin	0.0018933371454	0
bin	0.0019956796938	0
bin	0.0020980222422	0
bin	0.0022003647906	0
bin	0.002302707339	0
scalar BusLAN.host[8].eth[0].queue.dataQueue dropPk:count 0
attr interpolationmode none
attr source dropPkByQueue
attr title "dropped packets, count"
scalar BusLAN.host[8].eth[0].queue.dataQueue dropPk:sum(packetBytes) 0
attr interpolationmode none
attr source dropPkByQueue
attr title "dropped packets, sum(packetBytes)"
scalar BusLAN.host[8].eth[0].queue.dataQueue rcvdPk:count 857
attr interpolationmode none
attr title "received packets, count"
scalar BusLAN.host[8].eth[0].queue.dataQueue rcvdPk:sum(packetBytes) 637396
attr interpolationmode none
attr title "received packets, sum(packetBytes)"
scalar BusLAN.host[8].eth[0].mac "simulated time" 20
scalar BusLAN.host[8].eth[0].mac full-duplex 1
scalar BusLAN.host[8].eth[0].mac "frames/sec sent" 56.65
scalar BusLAN.host[8].eth[0].mac "frames/sec rcvd" 58.45
scalar BusLAN.host[8].eth[0].mac "bits/sec sent" 335449.6
scalar BusLAN.host[8].eth[0].mac "bits/sec rcvd" 336371.2
scalar BusLAN.host[8].eth[0].mac "rx channel idle (%)" 76.443568
scalar BusLAN.host[8].eth[0].mac "rx channel utilization (%)" 23.556432
scalar BusLAN.host[8].eth[0].mac rxPkFromHL:count 857
attr interpolationmode none
attr source rxPkFromHL
attr title "packet bytes from higher layer, count"
scalar BusLAN.host[8].eth[0].mac rxPkFromHL:sum(packetBytes) 637396
attr interpolationmode none
attr source rxPkFromHL
attr title "packet bytes from higher layer, sum(packetBytes)"
scalar BusLAN.host[8].eth[0].mac rxPausePkUnits:count 0
attr interpolationmode none
attr title "pause units received, count"
scalar BusLAN.host[8].eth[0].mac rxPausePkUnits:sum 0
attr interpolationmode none
attr title "pause units received, sum"
scalar BusLAN.host[8].eth[0].mac txPausePkUnits:count 0
attr interpolationmode none
attr title "pause units sent, count"
scalar BusLAN.host[8].eth[0].mac txPausePkUnits:sum 0
attr interpolationmode none
attr title "pause units sent, sum"
scalar BusLAN.host[8].eth[0].mac txPk:count 857
attr interpolationmode none
attr source txPk
attr title "packets transmitted, count"
scalar BusLAN.host[8].eth[0].mac txPk:sum(packetBytes) 637396
attr interpolationmode none
attr source txPk
attr title "packets transmitted, sum(packetBytes)"
scalar BusLAN.host[8].eth[0].mac droppedPkNotForUs:count 5289
attr interpolationmode none
attr source dropPkNotForUs
attr title "packets dropped/not for us, count"
scalar BusLAN.host[8].eth[0].mac droppedPkNotForUs:sum(packetBytes) 3742622
attr interpolationmode none
attr source dropPkNotForUs
attr title "packets dropped/not for us, sum(packetBytes)"
scalar BusLAN.host[8].eth[0].mac droppedPkBitError:count 0
attr interpolationmode none
attr source dropPkBitError
attr title "packets dropped/bit error, count"
scalar BusLAN.host[8].eth[0].mac droppedPkBitError:sum(packetBytes) 0
attr interpolationmode none
attr source dropPkBitError
attr title "packets dropped/bit error, sum(packetBytes)"
scalar BusLAN.host[8].eth[0].mac droppedPkIfaceDown:count 0
attr interpolationmode none
attr source dropPkIfaceDown
attr title "packets dropped/interface down, count"
scalar BusLAN.host[8].eth[0].mac droppedPkIfaceDown:sum(packetBytes) 0
attr interpolationmode none
attr source dropPkIfaceDown
attr title "packets dropped/interface down, sum(packetBytes)"
scalar BusLAN.host[8].eth[0].mac rxPkOk:count 857
attr interpolationmode none
attr source rxPkOk
attr title "packets received OK, count"
scalar BusLAN.host[8].eth[0].mac rxPkOk:sum(packetBytes) 637396
attr interpolationmode none
attr source rxPkOk
attr title "packets received OK, sum(packetBytes)"
scalar BusLAN.host[8].eth[0].mac passedUpPk:count 857
attr interpolationmode none
attr source packetSentToUpper
attr title "packets passed to higher layer, count"
scalar BusLAN.host[8].eth[0].mac passedUpPk:sum(packetBytes) 637396
attr interpolationmode none
attr source packetSentToUpper
attr title "packets passed to higher layer, sum(packetBytes)"
scalar BusLAN.host[8].eth[0].encap pauseSent:count 0
attr title "pause sent, count"
scalar BusLAN.host[8].eth[0].encap pauseSent:sum 0
attr title "pause sent, sum"
scalar BusLAN.host[8].eth[0].encap decapPk:count 857
attr interpolationmode none
attr source decapPk
attr title "packets decapsulated, count"
scalar BusLAN.host[8].eth[0].encap decapPk:sum(packetBytes) 621970
attr interpolationmode none
attr source decapPk
attr title "packets decapsulated, sum(packetBytes)"
scalar BusLAN.host[8].eth[0].encap encapPk:count 857
attr interpolationmode none
attr source encapPk
attr title "packets encapsulated, count"
scalar BusLAN.host[8].eth[0].encap encapPk:sum(packetBytes) 621970
attr interpolationmode none
attr source encapPk
attr title "packets encapsulated, sum(packetBytes)"
scalar BusLAN.host[8].pingApp[0] "Pings sent" 187
scalar BusLAN.host[8].pingApp[0] "ping loss rate (%)" 0
scalar BusLAN.host[8].pingApp[0] "ping out-of-order rate (%)" 0
scalar BusLAN.host[8].pingApp[0] pingRxSeq:count 141
attr interpolationmode none
attr title "ping rx seq, count"
scalar BusLAN.host[8].pingApp[0] pingTxSeq:count 141
attr interpolationmode none
attr title "ping tx seq, count"
scalar BusLAN.host[8].pingApp[0] numOutOfOrderArrivals:last nan
attr interpolationmode none
attr title "ping out-of-order arrivals, last"
scalar BusLAN.host[8].pingApp[0] numLost:last nan
attr interpolationmode none
attr title "pings lost, last"
scalar BusLAN.host[8].pingApp[0] rtt:mean 0.0025410181402791
attr interpolationmode none
attr title "ping round-trip time, mean"
attr unit s
scalar BusLAN.host[8].pingApp[1] "Pings sent" 200
scalar BusLAN.host[8].pingApp[1] "ping loss rate (%)" 0
scalar BusLAN.host[8].pingApp[1] "ping out-of-order rate (%)" 0
scalar BusLAN.host[8].pingApp[1] pingRxSeq:count 150
attr interpolationmode none
attr title "ping rx seq, count"
scalar BusLAN.host[8].pingApp[1] pingTxSeq:count 150
attr interpolationmode none
attr title "ping tx seq, count"
scalar BusLAN.host[8].pingApp[1] numOutOfOrderArrivals:last nan
attr interpolationmode none
attr title "ping out-of-order arrivals, last"
scalar BusLAN.host[8].pingApp[1] numLost:last nan
attr interpolationmode none
attr title "pings lost, last"
scalar BusLAN.host[8].pingApp[1] rtt:mean 0.0025155442030221
attr interpolationmode none
attr title "ping round-trip time, mean"
attr unit s
scalar BusLAN.host[9].networkLayer.arp sentReply:count 0
attr title "ARP replies sent, count"
scalar BusLAN.host[9].networkLayer.arp sentReq:count 0
attr title "ARP request sent, count"
scalar BusLAN.host[9].networkLayer.arp failedARPResolution:count 0
attr title "ARP failed resolutions, count"
scalar BusLAN.host[9].networkLayer.arp completedARPResolution:count 0
attr title "ARP completed resolutions, count"
scalar BusLAN.host[9].networkLayer.arp initiatedARPResolution:count 0
attr title "ARP initiated resolutions, count"
scalar BusLAN.host[9].lo0.lo droppedPkBitError:count 0
attr interpolationmode none
attr source dropPkBitError
attr title "packets dropped/bit error, count"
scalar BusLAN.host[9].lo0.lo droppedPkBitError:sum(packetBytes) 0
attr interpolationmode none
attr source dropPkBitError
attr title "packets dropped/bit error, sum(packetBytes)"
scalar BusLAN.host[9].lo0.lo rcvdPkFromHL:count 36
attr interpolationmode none
attr source packetReceivedFromUpper
attr title "packets received from higher layer, count"
scalar BusLAN.host[9].lo0.lo rcvdPkFromHL:sum(packetBytes) 15340
attr interpolationmode none
attr source packetReceivedFromUpper
attr title "packets received from higher layer, sum(packetBytes)"
scalar BusLAN.host[9].lo0.lo passedUpPk:count 36
attr interpolationmode none
attr source packetSentToUpper
attr title "packets passed to higher layer, count"
scalar BusLAN.host[9].lo0.lo passedUpPk:sum(packetBytes) 15340
attr interpolationmode none
attr source packetSentToUpper
attr title "packets passed to higher layer, sum(packetBytes)"
scalar BusLAN.host[9].eth[0].queue.pauseQueue queueLength:max nan
attr interpolationmode sample-hold
attr title "queue length, max"
scalar BusLAN.host[9].eth[0].queue.pauseQueue queueLength:timeavg nan
attr interpolationmode sample-hold
attr title "queue length, timeavg"
statistic BusLAN.host[9].eth[0].queue.pauseQueue queueingTime:histogram
field count 0
field mean nan
field stddev nan
field min nan
field max nan
field sum 0
field sqrsum 0
attr interpolationmode none
attr title "queueing time, histogram"
bin	-inf	0
bin	-0.5	0
bin	-0.46666666666667	0
bin	-0.43333333333333	0
bin	-0.4	0
bin	-0.36666666666667	0
bin	-0.33333333333333	0
bin	-0.3	0
bin	-0.26666666666667	0
bin	-0.23333333333333	0
bin	-0.2	0
bin	-0.16666666666667	0
bin	-0.13333333333333	0
bin	-0.1	0
bin	-0.066666666666667	0
bin	-0.033333333333333	0
bin	0	0
bin	0.033333333333333	0
bin	0.066666666666667	0
bin	0.1	0
bin	0.13333333333333	0
bin	0.16666666666667	0
bin	0.2	0
bin	0.23333333333333	0
bin	0.26666666666667	0
bin	0.3	0
bin	0.33333333333333	0
bin	0.36666666666667	0
bin	0.4	0
bin	0.43333333333333	0
bin	0.46666666666667	0
bin	0.5	0
scalar BusLAN.host[9].eth[0].queue.pauseQueue dropPk:count 0
attr interpolationmode none
attr source dropPkByQueue
attr title "dropped packets, count"
scalar BusLAN.host[9].eth[0].queue.pauseQueue dropPk:sum(packetBytes) 0
attr interpolationmode none
attr source dropPkByQueue
attr title "dropped packets, sum(packetBytes)"
scalar BusLAN.host[9].eth[0].queue.pauseQueue rcvdPk:count 0
attr interpolationmode none
attr title "received packets, count"
scalar BusLAN.host[9].eth[0].queue.pauseQueue rcvdPk:sum(packetBytes) 0
attr interpolationmode none
attr title "received packets, sum(packetBytes)"
scalar BusLAN.host[9].eth[0].queue.dataQueue queueLength:max 2
attr interpolationmode sample-hold
attr title "queue length, max"
scalar BusLAN.host[9].eth[0].queue.dataQueue queueLength:timeavg 0.0058184269173311
attr interpolationmode sample-hold
attr title "queue length, timeavg"
statistic BusLAN.host[9].eth[0].queue.dataQueue queueingTime:histogram
field count 609
field mean 0.00014302735088834
field stddev 0.00031294100918903
field min 0
field max 0.001124396216
field sum 0.087103656691
field sqrsum 7.2000907010408e-005
attr interpolationmode none
attr title "queueing time, histogram"
bin	-inf	0
bin	-0.0004232	0
bin	-0.00036677333333333	0
bin	-0.00031034666666667	0
bin	-0.00025392	0
bin	-0.00019749333333333	0
bin	-0.00014106666666667	0
bin	-8.464e-005	0
bin	-2.8213333333333e-005	498
bin	2.8213333333333e-005	0
bin	8.464e-005	0
bin	0.00014106666666667	2
bin	0.00019749333333333	2
bin	0.00025392	5
bin	0.00031034666666667	1
bin	0.00036677333333333	2
bin	0.0004232	0
bin	0.00047962666666667	1
bin	0.00053605333333333	0
bin	0.00059248	0
bin	0.00064890666666667	0
bin	0.00070533333333333	0
bin	0.00076176	0
bin	0.00081818666666667	97
bin	0.00087461333333333	0
bin	0.00093104	0
bin	0.00098746666666667	0
bin	0.0010438933333333	0
bin	0.00110032	1
bin	0.0011567466666667	0
bin	0.0012131733333333	0
bin	0.0012696	0
scalar BusLAN.host[9].eth[0].queue.dataQueue dropPk:count 0
attr interpolationmode none
attr source dropPkByQueue
attr title "dropped packets, count"
scalar BusLAN.host[9].eth[0].queue.dataQueue dropPk:sum(packetBytes) 0
attr interpolationmode none
attr source dropPkByQueue
attr title "dropped packets, sum(packetBytes)"
scalar BusLAN.host[9].eth[0].queue.dataQueue rcvdPk:count 609
attr interpolationmode none
attr title "received packets, count"
scalar BusLAN.host[9].eth[0].queue.dataQueue rcvdPk:sum(packetBytes) 372939
attr interpolationmode none
attr title "received packets, sum(packetBytes)"
scalar BusLAN.host[9].eth[0].mac "simulated time" 20
scalar BusLAN.host[9].eth[0].mac full-duplex 1
scalar BusLAN.host[9].eth[0].mac "frames/sec sent" 41.55
scalar BusLAN.host[9].eth[0].mac "frames/sec rcvd" 43.35
scalar BusLAN.host[9].eth[0].mac "bits/sec sent" 202903.6
scalar BusLAN.host[9].eth[0].mac "bits/sec rcvd" 203825.2
scalar BusLAN.host[9].eth[0].mac "rx channel idle (%)" 75.108444
scalar BusLAN.host[9].eth[0].mac "rx channel utilization (%)" 24.891556
scalar BusLAN.host[9].eth[0].mac rxPkFromHL:count 609
attr interpolationmode none
attr source rxPkFromHL
attr title "packet bytes from higher layer, count"
scalar BusLAN.host[9].eth[0].mac rxPkFromHL:sum(packetBytes) 372939
attr interpolationmode none
attr source rxPkFromHL
attr title "packet bytes from higher layer, sum(packetBytes)"
scalar BusLAN.host[9].eth[0].mac rxPausePkUnits:count 0
attr interpolationmode none
attr title "pause units received, count"
scalar BusLAN.host[9].eth[0].mac rxPausePkUnits:sum 0
attr interpolationmode none
attr title "pause units received, sum"
scalar BusLAN.host[9].eth[0].mac txPausePkUnits:count 0
attr interpolationmode none
attr title "pause units sent, count"
scalar BusLAN.host[9].eth[0].mac txPausePkUnits:sum 0
attr interpolationmode none
attr title "pause units sent, sum"
scalar BusLAN.host[9].eth[0].mac txPk:count 609
attr interpolationmode none
attr source txPk
attr title "packets transmitted, count"
scalar BusLAN.host[9].eth[0].mac txPk:sum(packetBytes) 372939
attr interpolationmode none
attr source txPk
attr title "packets transmitted, sum(packetBytes)"
scalar BusLAN.host[9].eth[0].mac droppedPkNotForUs:count 5785
attr interpolationmode none
attr source dropPkNotForUs
attr title "packets dropped/not for us, count"
scalar BusLAN.host[9].eth[0].mac droppedPkNotForUs:sum(packetBytes) 4271536
attr interpolationmode none
attr source dropPkNotForUs
attr title "packets dropped/not for us, sum(packetBytes)"
scalar BusLAN.host[9].eth[0].mac droppedPkBitError:count 0
attr interpolationmode none
attr source dropPkBitError
attr title "packets dropped/bit error, count"
scalar BusLAN.host[9].eth[0].mac droppedPkBitError:sum(packetBytes) 0
attr interpolationmode none
attr source dropPkBitError
attr title "packets dropped/bit error, sum(packetBytes)"
scalar BusLAN.host[9].eth[0].mac droppedPkIfaceDown:count 0
attr interpolationmode none
attr source dropPkIfaceDown
attr title "packets dropped/interface down, count"
scalar BusLAN.host[9].eth[0].mac droppedPkIfaceDown:sum(packetBytes) 0
attr interpolationmode none
attr source dropPkIfaceDown
attr title "packets dropped/interface down, sum(packetBytes)"
scalar BusLAN.host[9].eth[0].mac rxPkOk:count 609
attr interpolationmode none
attr source rxPkOk
attr title "packets received OK, count"
scalar BusLAN.host[9].eth[0].mac rxPkOk:sum(packetBytes) 372939
attr interpolationmode none
attr source rxPkOk
attr title "packets received OK, sum(packetBytes)"
scalar BusLAN.host[9].eth[0].mac passedUpPk:count 609
attr interpolationmode none
attr source packetSentToUpper
attr title "packets passed to higher layer, count"
scalar BusLAN.host[9].eth[0].mac passedUpPk:sum(packetBytes) 372939
attr interpolationmode none
attr source packetSentToUpper
attr title "packets passed to higher layer, sum(packetBytes)"
scalar BusLAN.host[9].eth[0].encap pauseSent:count 0
attr title "pause sent, count"
scalar BusLAN.host[9].eth[0].encap pauseSent:sum 0
attr title "pause sent, sum"
scalar BusLAN.host[9].eth[0].encap decapPk:count 609
attr interpolationmode none
attr source decapPk
attr title "packets decapsulated, count"
scalar BusLAN.host[9].eth[0].encap decapPk:sum(packetBytes) 361977
attr interpolationmode none
attr source decapPk
attr title "packets decapsulated, sum(packetBytes)"
scalar BusLAN.host[9].eth[0].encap encapPk:count 609
attr interpolationmode none
attr source encapPk
attr title "packets encapsulated, count"
scalar BusLAN.host[9].eth[0].encap encapPk:sum(packetBytes) 361977
attr interpolationmode none
attr source encapPk
attr title "packets encapsulated, sum(packetBytes)"
scalar BusLAN.host[9].pingApp[0] "Pings sent" 180
scalar BusLAN.host[9].pingApp[0] "ping loss rate (%)" 0
scalar BusLAN.host[9].pingApp[0] "ping out-of-order rate (%)" 0
scalar BusLAN.host[9].pingApp[0] pingRxSeq:count 133
attr interpolationmode none
attr title "ping rx seq, count"
scalar BusLAN.host[9].pingApp[0] pingTxSeq:count 133
attr interpolationmode none
attr title "ping tx seq, count"
scalar BusLAN.host[9].pingApp[0] numOutOfOrderArrivals:last nan
attr interpolationmode none
attr title "ping out-of-order arrivals, last"
scalar BusLAN.host[9].pingApp[0] numLost:last nan
attr interpolationmode none
attr title "pings lost, last"
scalar BusLAN.host[9].pingApp[0] rtt:mean 0.0009011249589187
attr interpolationmode none
attr title "ping round-trip time, mean"
attr unit s
scalar BusLAN.host[9].pingApp[1] "Pings sent" 193
scalar BusLAN.host[9].pingApp[1] "ping loss rate (%)" 0
scalar BusLAN.host[9].pingApp[1] "ping out-of-order rate (%)" 0
scalar BusLAN.host[9].pingApp[1] pingRxSeq:count 144
attr interpolationmode none
attr title "ping rx seq, count"
scalar BusLAN.host[9].pingApp[1] pingTxSeq:count 144
attr interpolationmode none
attr title "ping tx seq, count"
scalar BusLAN.host[9].pingApp[1] numOutOfOrderArrivals:last nan
attr interpolationmode none
attr title "ping out-of-order arrivals, last"
scalar BusLAN.host[9].pingApp[1] numLost:last nan
attr interpolationmode none
attr title "pings lost, last"
scalar BusLAN.host[9].pingApp[1] rtt:mean 0.00056917324641912
attr interpolationmode none
attr title "ping round-trip time, mean"
attr unit s
scalar BusLAN.bus "simulated time" 20
scalar BusLAN.bus "messages handled" 0
scalar BusLAN.bus messages/sec 0

