version 2
run BusLAN10-sendinterval-1-20180110-20:26:00-10560
attr configname BusLAN10-sendinterval
attr datetime 20180110-20:26:00
attr experiment BusLAN10-sendinterval
attr inifile BusLAN.ini
attr iterationvars $pa=16
attr iterationvarsf pa=16-
attr measurement $pa=16
attr network BusLAN
attr processid 10560
attr repetition 0
attr replication #0
attr resultdir results
attr runnumber 1
attr seedset 1
itervar pa 16
param *.numHosts 10
param **.datarate 10Mbps
param **.host[*].pingApp[*].sendInterval "truncnormal(100ms, 50ms)"
param **.host[*].pingApp[*].packetSize "truncnormal(1024B, 512B)"
param **.queueType "\"DropTailQueue\""
param **.frameCapacity 10
param **.mtu 1024B
param **.host[*].numPingApps 16
param **.host[*].pingApp[*].typename "\"PingApp\""
param **.host[*].pingApp[*].count 1
param **.host[*].pingApp[*].startTime "truncnormal(200ms, 100ms)"
param **.host[*].pingApp[*].destAddr "\"*\""

scalar BusLAN.host[0].networkLayer.arp sentReply:count 0
attr title "ARP replies sent, count"
scalar BusLAN.host[0].networkLayer.arp sentReq:count 0
attr title "ARP request sent, count"
scalar BusLAN.host[0].networkLayer.arp failedARPResolution:count 0
attr title "ARP failed resolutions, count"
scalar BusLAN.host[0].networkLayer.arp completedARPResolution:count 0
attr title "ARP completed resolutions, count"
scalar BusLAN.host[0].networkLayer.arp initiatedARPResolution:count 0
attr title "ARP initiated resolutions, count"
scalar BusLAN.host[0].lo0.lo droppedPkBitError:count 0
attr interpolationmode none
attr source dropPkBitError
attr title "packets dropped/bit error, count"
scalar BusLAN.host[0].lo0.lo droppedPkBitError:sum(packetBytes) 0
attr interpolationmode none
attr source dropPkBitError
attr title "packets dropped/bit error, sum(packetBytes)"
scalar BusLAN.host[0].lo0.lo rcvdPkFromHL:count 694
attr interpolationmode none
attr source packetReceivedFromUpper
attr title "packets received from higher layer, count"
scalar BusLAN.host[0].lo0.lo rcvdPkFromHL:sum(packetBytes) 498102
attr interpolationmode none
attr source packetReceivedFromUpper
attr title "packets received from higher layer, sum(packetBytes)"
scalar BusLAN.host[0].lo0.lo passedUpPk:count 694
attr interpolationmode none
attr source packetSentToUpper
attr title "packets passed to higher layer, count"
scalar BusLAN.host[0].lo0.lo passedUpPk:sum(packetBytes) 498102
attr interpolationmode none
attr source packetSentToUpper
attr title "packets passed to higher layer, sum(packetBytes)"
scalar BusLAN.host[0].eth[0].queue.pauseQueue queueLength:max nan
attr interpolationmode sample-hold
attr title "queue length, max"
scalar BusLAN.host[0].eth[0].queue.pauseQueue queueLength:timeavg nan
attr interpolationmode sample-hold
attr title "queue length, timeavg"
statistic BusLAN.host[0].eth[0].queue.pauseQueue queueingTime:histogram
field count 0
field mean nan
field stddev nan
field min nan
field max nan
field sum 0
field sqrsum 0
attr interpolationmode none
attr title "queueing time, histogram"
bin	-inf	0
bin	-0.5	0
bin	-0.46666666666667	0
bin	-0.43333333333333	0
bin	-0.4	0
bin	-0.36666666666667	0
bin	-0.33333333333333	0
bin	-0.3	0
bin	-0.26666666666667	0
bin	-0.23333333333333	0
bin	-0.2	0
bin	-0.16666666666667	0
bin	-0.13333333333333	0
bin	-0.1	0
bin	-0.066666666666667	0
bin	-0.033333333333333	0
bin	0	0
bin	0.033333333333333	0
bin	0.066666666666667	0
bin	0.1	0
bin	0.13333333333333	0
bin	0.16666666666667	0
bin	0.2	0
bin	0.23333333333333	0
bin	0.26666666666667	0
bin	0.3	0
bin	0.33333333333333	0
bin	0.36666666666667	0
bin	0.4	0
bin	0.43333333333333	0
bin	0.46666666666667	0
bin	0.5	0
scalar BusLAN.host[0].eth[0].queue.pauseQueue dropPk:count 0
attr interpolationmode none
attr source dropPkByQueue
attr title "dropped packets, count"
scalar BusLAN.host[0].eth[0].queue.pauseQueue dropPk:sum(packetBytes) 0
attr interpolationmode none
attr source dropPkByQueue
attr title "dropped packets, sum(packetBytes)"
scalar BusLAN.host[0].eth[0].queue.pauseQueue rcvdPk:count 0
attr interpolationmode none
attr title "received packets, count"
scalar BusLAN.host[0].eth[0].queue.pauseQueue rcvdPk:sum(packetBytes) 0
attr interpolationmode none
attr title "received packets, sum(packetBytes)"
scalar BusLAN.host[0].eth[0].queue.dataQueue queueLength:max 9
attr interpolationmode sample-hold
attr title "queue length, max"
scalar BusLAN.host[0].eth[0].queue.dataQueue queueLength:timeavg 0.23081136648455
attr interpolationmode sample-hold
attr title "queue length, timeavg"
statistic BusLAN.host[0].eth[0].queue.dataQueue queueingTime:histogram
field count 6690
field mean 0.00051747229902345
field stddev 0.00061876002684019
field min 0
field max 0.005365676395
field sum 3.4618896804669
field sqrsum 0.0043524091127001
attr interpolationmode none
attr title "queueing time, histogram"
bin	-inf	0
bin	-0.0010363093845	0
bin	-0.0008981347999	0
bin	-0.0007599602153	0
bin	-0.0006217856307	0
bin	-0.0004836110461	0
bin	-0.0003454364615	0
bin	-0.0002072618769	0
bin	-6.90872923e-005	3197
bin	6.90872923e-005	128
bin	0.0002072618769	140
bin	0.0003454364615	109
bin	0.0004836110461	104
bin	0.0006217856307	113
bin	0.0007599602153	1826
bin	0.0008981347999	160
bin	0.0010363093845	125
bin	0.0011744839691	126
bin	0.0013126585537	110
bin	0.0014508331383	94
bin	0.0015890077229	154
bin	0.0017271823075	76
bin	0.0018653568921	43
bin	0.0020035314767	45
bin	0.0021417060613	42
bin	0.0022798806459	21
bin	0.0024180552305	25
bin	0.0025562298151	11
bin	0.0026944043997	11
bin	0.0028325789843	8
bin	0.0029707535689	10
bin	0.0031089281535	12
scalar BusLAN.host[0].eth[0].queue.dataQueue dropPk:count 0
attr interpolationmode none
attr source dropPkByQueue
attr title "dropped packets, count"
scalar BusLAN.host[0].eth[0].queue.dataQueue dropPk:sum(packetBytes) 0
attr interpolationmode none
attr source dropPkByQueue
attr title "dropped packets, sum(packetBytes)"
scalar BusLAN.host[0].eth[0].queue.dataQueue rcvdPk:count 6690
attr interpolationmode none
attr title "received packets, count"
scalar BusLAN.host[0].eth[0].queue.dataQueue rcvdPk:sum(packetBytes) 4807082
attr interpolationmode none
attr title "received packets, sum(packetBytes)"
scalar BusLAN.host[0].eth[0].mac "simulated time" 20
scalar BusLAN.host[0].eth[0].mac full-duplex 1
scalar BusLAN.host[0].eth[0].mac "frames/sec sent" 450.8
scalar BusLAN.host[0].eth[0].mac "frames/sec rcvd" 452.45
scalar BusLAN.host[0].eth[0].mac "bits/sec sent" 2588402
scalar BusLAN.host[0].eth[0].mac "bits/sec rcvd" 2588341.6
scalar BusLAN.host[0].eth[0].mac "rx channel idle (%)" -125.476848
scalar BusLAN.host[0].eth[0].mac "rx channel utilization (%)" 225.476848
scalar BusLAN.host[0].eth[0].mac rxPkFromHL:count 6690
attr interpolationmode none
attr source rxPkFromHL
attr title "packet bytes from higher layer, count"
scalar BusLAN.host[0].eth[0].mac rxPkFromHL:sum(packetBytes) 4807082
attr interpolationmode none
attr source rxPkFromHL
attr title "packet bytes from higher layer, sum(packetBytes)"
scalar BusLAN.host[0].eth[0].mac rxPausePkUnits:count 0
attr interpolationmode none
attr title "pause units received, count"
scalar BusLAN.host[0].eth[0].mac rxPausePkUnits:sum 0
attr interpolationmode none
attr title "pause units received, sum"
scalar BusLAN.host[0].eth[0].mac txPausePkUnits:count 0
attr interpolationmode none
attr title "pause units sent, count"
scalar BusLAN.host[0].eth[0].mac txPausePkUnits:sum 0
attr interpolationmode none
attr title "pause units sent, sum"
scalar BusLAN.host[0].eth[0].mac txPk:count 6690
attr interpolationmode none
attr source txPk
attr title "packets transmitted, count"
scalar BusLAN.host[0].eth[0].mac txPk:sum(packetBytes) 4807082
attr interpolationmode none
attr source txPk
attr title "packets transmitted, sum(packetBytes)"
scalar BusLAN.host[0].eth[0].mac droppedPkNotForUs:count 53236
attr interpolationmode none
attr source dropPkNotForUs
attr title "packets dropped/not for us, count"
scalar BusLAN.host[0].eth[0].mac droppedPkNotForUs:sum(packetBytes) 37587540
attr interpolationmode none
attr source dropPkNotForUs
attr title "packets dropped/not for us, sum(packetBytes)"
scalar BusLAN.host[0].eth[0].mac droppedPkBitError:count 0
attr interpolationmode none
attr source dropPkBitError
attr title "packets dropped/bit error, count"
scalar BusLAN.host[0].eth[0].mac droppedPkBitError:sum(packetBytes) 0
attr interpolationmode none
attr source dropPkBitError
attr title "packets dropped/bit error, sum(packetBytes)"
scalar BusLAN.host[0].eth[0].mac droppedPkIfaceDown:count 0
attr interpolationmode none
attr source dropPkIfaceDown
attr title "packets dropped/interface down, count"
scalar BusLAN.host[0].eth[0].mac droppedPkIfaceDown:sum(packetBytes) 0
attr interpolationmode none
attr source dropPkIfaceDown
attr title "packets dropped/interface down, sum(packetBytes)"
scalar BusLAN.host[0].eth[0].mac rxPkOk:count 6687
attr interpolationmode none
attr source rxPkOk
attr title "packets received OK, count"
scalar BusLAN.host[0].eth[0].mac rxPkOk:sum(packetBytes) 4804627
attr interpolationmode none
attr source rxPkOk
attr title "packets received OK, sum(packetBytes)"
scalar BusLAN.host[0].eth[0].mac passedUpPk:count 6687
attr interpolationmode none
attr source packetSentToUpper
attr title "packets passed to higher layer, count"
scalar BusLAN.host[0].eth[0].mac passedUpPk:sum(packetBytes) 4804627
attr interpolationmode none
attr source packetSentToUpper
attr title "packets passed to higher layer, sum(packetBytes)"
scalar BusLAN.host[0].eth[0].encap pauseSent:count 0
attr title "pause sent, count"
scalar BusLAN.host[0].eth[0].encap pauseSent:sum 0
attr title "pause sent, sum"
scalar BusLAN.host[0].eth[0].encap decapPk:count 6687
attr interpolationmode none
attr source decapPk
attr title "packets decapsulated, count"
scalar BusLAN.host[0].eth[0].encap decapPk:sum(packetBytes) 4683567
attr interpolationmode none
attr source decapPk
attr title "packets decapsulated, sum(packetBytes)"
scalar BusLAN.host[0].eth[0].encap encapPk:count 6690
attr interpolationmode none
attr source encapPk
attr title "packets encapsulated, count"
scalar BusLAN.host[0].eth[0].encap encapPk:sum(packetBytes) 4685968
attr interpolationmode none
attr source encapPk
attr title "packets encapsulated, sum(packetBytes)"
scalar BusLAN.host[0].pingApp[0] "Pings sent" 188
scalar BusLAN.host[0].pingApp[0] "ping loss rate (%)" 0
scalar BusLAN.host[0].pingApp[0] "ping out-of-order rate (%)" 0
scalar BusLAN.host[0].pingApp[0] pingRxSeq:count 146
attr interpolationmode none
attr title "ping rx seq, count"
scalar BusLAN.host[0].pingApp[0] pingTxSeq:count 146
attr interpolationmode none
attr title "ping tx seq, count"
scalar BusLAN.host[0].pingApp[0] numOutOfOrderArrivals:last nan
attr interpolationmode none
attr title "ping out-of-order arrivals, last"
scalar BusLAN.host[0].pingApp[0] numLost:last nan
attr interpolationmode none
attr title "pings lost, last"
scalar BusLAN.host[0].pingApp[0] rtt:mean 0.003071718940963
attr interpolationmode none
attr title "ping round-trip time, mean"
attr unit s
scalar BusLAN.host[0].pingApp[1] "Pings sent" 197
scalar BusLAN.host[0].pingApp[1] "ping loss rate (%)" 0
scalar BusLAN.host[0].pingApp[1] "ping out-of-order rate (%)" 0
scalar BusLAN.host[0].pingApp[1] pingRxSeq:count 152
attr interpolationmode none
attr title "ping rx seq, count"
scalar BusLAN.host[0].pingApp[1] pingTxSeq:count 152
attr interpolationmode none
attr title "ping tx seq, count"
scalar BusLAN.host[0].pingApp[1] numOutOfOrderArrivals:last nan
attr interpolationmode none
attr title "ping out-of-order arrivals, last"
scalar BusLAN.host[0].pingApp[1] numLost:last nan
attr interpolationmode none
attr title "pings lost, last"
scalar BusLAN.host[0].pingApp[1] rtt:mean 0.0021923274731022
attr interpolationmode none
attr title "ping round-trip time, mean"
attr unit s
scalar BusLAN.host[0].pingApp[2] "Pings sent" 210
scalar BusLAN.host[0].pingApp[2] "ping loss rate (%)" 0
scalar BusLAN.host[0].pingApp[2] "ping out-of-order rate (%)" 0
scalar BusLAN.host[0].pingApp[2] pingRxSeq:count 154
attr interpolationmode none
attr title "ping rx seq, count"
scalar BusLAN.host[0].pingApp[2] pingTxSeq:count 154
attr interpolationmode none
attr title "ping tx seq, count"
scalar BusLAN.host[0].pingApp[2] numOutOfOrderArrivals:last nan
attr interpolationmode none
attr title "ping out-of-order arrivals, last"
scalar BusLAN.host[0].pingApp[2] numLost:last nan
attr interpolationmode none
attr title "pings lost, last"
scalar BusLAN.host[0].pingApp[2] rtt:mean 0.0022706248935857
attr interpolationmode none
attr title "ping round-trip time, mean"
attr unit s
scalar BusLAN.host[0].pingApp[3] "Pings sent" 194
scalar BusLAN.host[0].pingApp[3] "ping loss rate (%)" 0
scalar BusLAN.host[0].pingApp[3] "ping out-of-order rate (%)" 0
scalar BusLAN.host[0].pingApp[3] pingRxSeq:count 145
attr interpolationmode none
attr title "ping rx seq, count"
scalar BusLAN.host[0].pingApp[3] pingTxSeq:count 145
attr interpolationmode none
attr title "ping tx seq, count"
scalar BusLAN.host[0].pingApp[3] numOutOfOrderArrivals:last nan
attr interpolationmode none
attr title "ping out-of-order arrivals, last"
scalar BusLAN.host[0].pingApp[3] numLost:last nan
attr interpolationmode none
attr title "pings lost, last"
scalar BusLAN.host[0].pingApp[3] rtt:mean 0.0016966144299398
attr interpolationmode none
attr title "ping round-trip time, mean"
attr unit s
scalar BusLAN.host[0].pingApp[4] "Pings sent" 196
scalar BusLAN.host[0].pingApp[4] "ping loss rate (%)" 0.51020408163265
scalar BusLAN.host[0].pingApp[4] "ping out-of-order rate (%)" 0
scalar BusLAN.host[0].pingApp[4] pingRxSeq:count 150
attr interpolationmode none
attr title "ping rx seq, count"
scalar BusLAN.host[0].pingApp[4] pingTxSeq:count 151
attr interpolationmode none
attr title "ping tx seq, count"
scalar BusLAN.host[0].pingApp[4] numOutOfOrderArrivals:last nan
attr interpolationmode none
attr title "ping out-of-order arrivals, last"
scalar BusLAN.host[0].pingApp[4] numLost:last nan
attr interpolationmode none
attr title "pings lost, last"
scalar BusLAN.host[0].pingApp[4] rtt:mean 0.0029245560809254
attr interpolationmode none
attr title "ping round-trip time, mean"
attr unit s
scalar BusLAN.host[0].pingApp[5] "Pings sent" 218
scalar BusLAN.host[0].pingApp[5] "ping loss rate (%)" 0
scalar BusLAN.host[0].pingApp[5] "ping out-of-order rate (%)" 0
scalar BusLAN.host[0].pingApp[5] pingRxSeq:count 164
attr interpolationmode none
attr title "ping rx seq, count"
scalar BusLAN.host[0].pingApp[5] pingTxSeq:count 164
attr interpolationmode none
attr title "ping tx seq, count"
scalar BusLAN.host[0].pingApp[5] numOutOfOrderArrivals:last nan
attr interpolationmode none
attr title "ping out-of-order arrivals, last"
scalar BusLAN.host[0].pingApp[5] numLost:last nan
attr interpolationmode none
attr title "pings lost, last"
scalar BusLAN.host[0].pingApp[5] rtt:mean 0.0017076072258421
attr interpolationmode none
attr title "ping round-trip time, mean"
attr unit s
scalar BusLAN.host[0].pingApp[6] "Pings sent" 192
scalar BusLAN.host[0].pingApp[6] "ping loss rate (%)" 0
scalar BusLAN.host[0].pingApp[6] "ping out-of-order rate (%)" 0.52083333333333
scalar BusLAN.host[0].pingApp[6] pingRxSeq:count 146
attr interpolationmode none
attr title "ping rx seq, count"
scalar BusLAN.host[0].pingApp[6] pingTxSeq:count 146
attr interpolationmode none
attr title "ping tx seq, count"
scalar BusLAN.host[0].pingApp[6] numOutOfOrderArrivals:last 1
attr interpolationmode none
attr title "ping out-of-order arrivals, last"
scalar BusLAN.host[0].pingApp[6] numLost:last 0
attr interpolationmode none
attr title "pings lost, last"
scalar BusLAN.host[0].pingApp[6] rtt:mean 0.0016124123664478
attr interpolationmode none
attr title "ping round-trip time, mean"
attr unit s
scalar BusLAN.host[0].pingApp[7] "Pings sent" 196
scalar BusLAN.host[0].pingApp[7] "ping loss rate (%)" 0
scalar BusLAN.host[0].pingApp[7] "ping out-of-order rate (%)" 0
scalar BusLAN.host[0].pingApp[7] pingRxSeq:count 148
attr interpolationmode none
attr title "ping rx seq, count"
scalar BusLAN.host[0].pingApp[7] pingTxSeq:count 148
attr interpolationmode none
attr title "ping tx seq, count"
scalar BusLAN.host[0].pingApp[7] numOutOfOrderArrivals:last nan
attr interpolationmode none
attr title "ping out-of-order arrivals, last"
scalar BusLAN.host[0].pingApp[7] numLost:last nan
attr interpolationmode none
attr title "pings lost, last"
scalar BusLAN.host[0].pingApp[7] rtt:mean 0.0018745705248519
attr interpolationmode none
attr title "ping round-trip time, mean"
attr unit s
scalar BusLAN.host[0].pingApp[8] "Pings sent" 195
scalar BusLAN.host[0].pingApp[8] "ping loss rate (%)" 0
scalar BusLAN.host[0].pingApp[8] "ping out-of-order rate (%)" 0
scalar BusLAN.host[0].pingApp[8] pingRxSeq:count 148
attr interpolationmode none
attr title "ping rx seq, count"
scalar BusLAN.host[0].pingApp[8] pingTxSeq:count 148
attr interpolationmode none
attr title "ping tx seq, count"
scalar BusLAN.host[0].pingApp[8] numOutOfOrderArrivals:last nan
attr interpolationmode none
attr title "ping out-of-order arrivals, last"
scalar BusLAN.host[0].pingApp[8] numLost:last nan
attr interpolationmode none
attr title "pings lost, last"
scalar BusLAN.host[0].pingApp[8] rtt:mean 0.001326782438781
attr interpolationmode none
attr title "ping round-trip time, mean"
attr unit s
scalar BusLAN.host[0].pingApp[9] "Pings sent" 189
scalar BusLAN.host[0].pingApp[9] "ping loss rate (%)" 0
scalar BusLAN.host[0].pingApp[9] "ping out-of-order rate (%)" 0
scalar BusLAN.host[0].pingApp[9] pingRxSeq:count 146
attr interpolationmode none
attr title "ping rx seq, count"
scalar BusLAN.host[0].pingApp[9] pingTxSeq:count 146
attr interpolationmode none
attr title "ping tx seq, count"
scalar BusLAN.host[0].pingApp[9] numOutOfOrderArrivals:last nan
attr interpolationmode none
attr title "ping out-of-order arrivals, last"
scalar BusLAN.host[0].pingApp[9] numLost:last nan
attr interpolationmode none
attr title "pings lost, last"
scalar BusLAN.host[0].pingApp[9] rtt:mean 0.0027028286962
attr interpolationmode none
attr title "ping round-trip time, mean"
attr unit s
scalar BusLAN.host[0].pingApp[10] "Pings sent" 183
scalar BusLAN.host[0].pingApp[10] "ping loss rate (%)" 0.54644808743169
scalar BusLAN.host[0].pingApp[10] "ping out-of-order rate (%)" 0
scalar BusLAN.host[0].pingApp[10] pingRxSeq:count 131
attr interpolationmode none
attr title "ping rx seq, count"
scalar BusLAN.host[0].pingApp[10] pingTxSeq:count 132
attr interpolationmode none
attr title "ping tx seq, count"
scalar BusLAN.host[0].pingApp[10] numOutOfOrderArrivals:last nan
attr interpolationmode none
attr title "ping out-of-order arrivals, last"
scalar BusLAN.host[0].pingApp[10] numLost:last nan
attr interpolationmode none
attr title "pings lost, last"
scalar BusLAN.host[0].pingApp[10] rtt:mean 0.0017523089472479
attr interpolationmode none
attr title "ping round-trip time, mean"
attr unit s
scalar BusLAN.host[0].pingApp[11] "Pings sent" 200
scalar BusLAN.host[0].pingApp[11] "ping loss rate (%)" 0
scalar BusLAN.host[0].pingApp[11] "ping out-of-order rate (%)" 0
scalar BusLAN.host[0].pingApp[11] pingRxSeq:count 151
attr interpolationmode none
attr title "ping rx seq, count"
scalar BusLAN.host[0].pingApp[11] pingTxSeq:count 151
attr interpolationmode none
attr title "ping tx seq, count"
scalar BusLAN.host[0].pingApp[11] numOutOfOrderArrivals:last nan
attr interpolationmode none
attr title "ping out-of-order arrivals, last"
scalar BusLAN.host[0].pingApp[11] numLost:last nan
attr interpolationmode none
attr title "pings lost, last"
scalar BusLAN.host[0].pingApp[11] rtt:mean 0.00278988523315
attr interpolationmode none
attr title "ping round-trip time, mean"
attr unit s
scalar BusLAN.host[0].pingApp[12] "Pings sent" 192
scalar BusLAN.host[0].pingApp[12] "ping loss rate (%)" 0
scalar BusLAN.host[0].pingApp[12] "ping out-of-order rate (%)" 0
scalar BusLAN.host[0].pingApp[12] pingRxSeq:count 146
attr interpolationmode none
attr title "ping rx seq, count"
scalar BusLAN.host[0].pingApp[12] pingTxSeq:count 146
attr interpolationmode none
attr title "ping tx seq, count"
scalar BusLAN.host[0].pingApp[12] numOutOfOrderArrivals:last nan
attr interpolationmode none
attr title "ping out-of-order arrivals, last"
scalar BusLAN.host[0].pingApp[12] numLost:last nan
attr interpolationmode none
attr title "pings lost, last"
scalar BusLAN.host[0].pingApp[12] rtt:mean 0.0032393155460866
attr interpolationmode none
attr title "ping round-trip time, mean"
attr unit s
scalar BusLAN.host[0].pingApp[13] "Pings sent" 197
scalar BusLAN.host[0].pingApp[13] "ping loss rate (%)" 0
scalar BusLAN.host[0].pingApp[13] "ping out-of-order rate (%)" 0
scalar BusLAN.host[0].pingApp[13] pingRxSeq:count 148
attr interpolationmode none
attr title "ping rx seq, count"
scalar BusLAN.host[0].pingApp[13] pingTxSeq:count 148
attr interpolationmode none
attr title "ping tx seq, count"
scalar BusLAN.host[0].pingApp[13] numOutOfOrderArrivals:last nan
attr interpolationmode none
attr title "ping out-of-order arrivals, last"
scalar BusLAN.host[0].pingApp[13] numLost:last nan
attr interpolationmode none
attr title "pings lost, last"
scalar BusLAN.host[0].pingApp[13] rtt:mean 0.002250259918903
attr interpolationmode none
attr title "ping round-trip time, mean"
attr unit s
scalar BusLAN.host[0].pingApp[14] "Pings sent" 207
scalar BusLAN.host[0].pingApp[14] "ping loss rate (%)" 0
scalar BusLAN.host[0].pingApp[14] "ping out-of-order rate (%)" 0
scalar BusLAN.host[0].pingApp[14] pingRxSeq:count 155
attr interpolationmode none
attr title "ping rx seq, count"
scalar BusLAN.host[0].pingApp[14] pingTxSeq:count 155
attr interpolationmode none
attr title "ping tx seq, count"
scalar BusLAN.host[0].pingApp[14] numOutOfOrderArrivals:last nan
attr interpolationmode none
attr title "ping out-of-order arrivals, last"
scalar BusLAN.host[0].pingApp[14] numLost:last nan
attr interpolationmode none
attr title "pings lost, last"
scalar BusLAN.host[0].pingApp[14] rtt:mean 0.0026783855215755
attr interpolationmode none
attr title "ping round-trip time, mean"
attr unit s
scalar BusLAN.host[0].pingApp[15] "Pings sent" 187
scalar BusLAN.host[0].pingApp[15] "ping loss rate (%)" 0
scalar BusLAN.host[0].pingApp[15] "ping out-of-order rate (%)" 0
scalar BusLAN.host[0].pingApp[15] pingRxSeq:count 141
attr interpolationmode none
attr title "ping rx seq, count"
scalar BusLAN.host[0].pingApp[15] pingTxSeq:count 141
attr interpolationmode none
attr title "ping tx seq, count"
scalar BusLAN.host[0].pingApp[15] numOutOfOrderArrivals:last nan
attr interpolationmode none
attr title "ping out-of-order arrivals, last"
scalar BusLAN.host[0].pingApp[15] numLost:last nan
attr interpolationmode none
attr title "pings lost, last"
scalar BusLAN.host[0].pingApp[15] rtt:mean 0.0017925503705781
attr interpolationmode none
attr title "ping round-trip time, mean"
attr unit s
scalar BusLAN.host[1].networkLayer.arp sentReply:count 0
attr title "ARP replies sent, count"
scalar BusLAN.host[1].networkLayer.arp sentReq:count 0
attr title "ARP request sent, count"
scalar BusLAN.host[1].networkLayer.arp failedARPResolution:count 0
attr title "ARP failed resolutions, count"
scalar BusLAN.host[1].networkLayer.arp completedARPResolution:count 0
attr title "ARP completed resolutions, count"
scalar BusLAN.host[1].networkLayer.arp initiatedARPResolution:count 0
attr title "ARP initiated resolutions, count"
scalar BusLAN.host[1].lo0.lo droppedPkBitError:count 0
attr interpolationmode none
attr source dropPkBitError
attr title "packets dropped/bit error, count"
scalar BusLAN.host[1].lo0.lo droppedPkBitError:sum(packetBytes) 0
attr interpolationmode none
attr source dropPkBitError
attr title "packets dropped/bit error, sum(packetBytes)"
scalar BusLAN.host[1].lo0.lo rcvdPkFromHL:count 750
attr interpolationmode none
attr source packetReceivedFromUpper
attr title "packets received from higher layer, count"
scalar BusLAN.host[1].lo0.lo rcvdPkFromHL:sum(packetBytes) 513118
attr interpolationmode none
attr source packetReceivedFromUpper
attr title "packets received from higher layer, sum(packetBytes)"
scalar BusLAN.host[1].lo0.lo passedUpPk:count 750
attr interpolationmode none
attr source packetSentToUpper
attr title "packets passed to higher layer, count"
scalar BusLAN.host[1].lo0.lo passedUpPk:sum(packetBytes) 513118
attr interpolationmode none
attr source packetSentToUpper
attr title "packets passed to higher layer, sum(packetBytes)"
scalar BusLAN.host[1].eth[0].queue.pauseQueue queueLength:max nan
attr interpolationmode sample-hold
attr title "queue length, max"
scalar BusLAN.host[1].eth[0].queue.pauseQueue queueLength:timeavg nan
attr interpolationmode sample-hold
attr title "queue length, timeavg"
statistic BusLAN.host[1].eth[0].queue.pauseQueue queueingTime:histogram
field count 0
field mean nan
field stddev nan
field min nan
field max nan
field sum 0
field sqrsum 0
attr interpolationmode none
attr title "queueing time, histogram"
bin	-inf	0
bin	-0.5	0
bin	-0.46666666666667	0
bin	-0.43333333333333	0
bin	-0.4	0
bin	-0.36666666666667	0
bin	-0.33333333333333	0
bin	-0.3	0
bin	-0.26666666666667	0
bin	-0.23333333333333	0
bin	-0.2	0
bin	-0.16666666666667	0
bin	-0.13333333333333	0
bin	-0.1	0
bin	-0.066666666666667	0
bin	-0.033333333333333	0
bin	0	0
bin	0.033333333333333	0
bin	0.066666666666667	0
bin	0.1	0
bin	0.13333333333333	0
bin	0.16666666666667	0
bin	0.2	0
bin	0.23333333333333	0
bin	0.26666666666667	0
bin	0.3	0
bin	0.33333333333333	0
bin	0.36666666666667	0
bin	0.4	0
bin	0.43333333333333	0
bin	0.46666666666667	0
bin	0.5	0
scalar BusLAN.host[1].eth[0].queue.pauseQueue dropPk:count 0
attr interpolationmode none
attr source dropPkByQueue
attr title "dropped packets, count"
scalar BusLAN.host[1].eth[0].queue.pauseQueue dropPk:sum(packetBytes) 0
attr interpolationmode none
attr source dropPkByQueue
attr title "dropped packets, sum(packetBytes)"
scalar BusLAN.host[1].eth[0].queue.pauseQueue rcvdPk:count 0
attr interpolationmode none
attr title "received packets, count"
scalar BusLAN.host[1].eth[0].queue.pauseQueue rcvdPk:sum(packetBytes) 0
attr interpolationmode none
attr title "received packets, sum(packetBytes)"
scalar BusLAN.host[1].eth[0].queue.dataQueue queueLength:max 8
attr interpolationmode sample-hold
attr title "queue length, max"
scalar BusLAN.host[1].eth[0].queue.dataQueue queueLength:timeavg 0.20825876394246
attr interpolationmode sample-hold
attr title "queue length, timeavg"
statistic BusLAN.host[1].eth[0].queue.dataQueue queueingTime:histogram
field count 6460
field mean 0.00048341668792274
field stddev 0.00060242046690051
field min 0
field max 0.004314719793
field sum 3.1228718039809
field sqrsum 0.0038536867402253
attr interpolationmode none
attr title "queueing time, histogram"
bin	-inf	0
bin	-0.001049136981	0
bin	-0.0009092520502	0
bin	-0.0007693671194	0
bin	-0.0006294821886	0
bin	-0.0004895972578	0
bin	-0.000349712327	0
bin	-0.0002098273962	0
bin	-6.99424654e-005	3223
bin	6.99424654e-005	133
bin	0.0002098273962	135
bin	0.000349712327	118
bin	0.0004895972578	105
bin	0.0006294821886	93
bin	0.0007693671194	1758
bin	0.0009092520502	132
bin	0.001049136981	132
bin	0.0011890219118	109
bin	0.0013289068426	99
bin	0.0014687917734	57
bin	0.0016086767042	127
bin	0.001748561635	57
bin	0.0018884465658	46
bin	0.0020283314966	28
bin	0.0021682164274	20
bin	0.0023081013582	18
bin	0.002447986289	14
bin	0.0025878712198	12
bin	0.0027277561506	14
bin	0.0028676410814	4
bin	0.0030075260122	5
bin	0.003147410943	21
scalar BusLAN.host[1].eth[0].queue.dataQueue dropPk:count 0
attr interpolationmode none
attr source dropPkByQueue
attr title "dropped packets, count"
scalar BusLAN.host[1].eth[0].queue.dataQueue dropPk:sum(packetBytes) 0
attr interpolationmode none
attr source dropPkByQueue
attr title "dropped packets, sum(packetBytes)"
scalar BusLAN.host[1].eth[0].queue.dataQueue rcvdPk:count 6461
attr interpolationmode none
attr title "received packets, count"
scalar BusLAN.host[1].eth[0].queue.dataQueue rcvdPk:sum(packetBytes) 4534017
attr interpolationmode none
attr title "received packets, sum(packetBytes)"
scalar BusLAN.host[1].eth[0].mac "simulated time" 20
scalar BusLAN.host[1].eth[0].mac full-duplex 1
scalar BusLAN.host[1].eth[0].mac "frames/sec sent" 427.65
scalar BusLAN.host[1].eth[0].mac "frames/sec rcvd" 429.55
scalar BusLAN.host[1].eth[0].mac "bits/sec sent" 2397734.4
scalar BusLAN.host[1].eth[0].mac "bits/sec rcvd" 2399288.4
scalar BusLAN.host[1].eth[0].mac "rx channel idle (%)" -127.39834
scalar BusLAN.host[1].eth[0].mac "rx channel utilization (%)" 227.39834
scalar BusLAN.host[1].eth[0].mac rxPkFromHL:count 6460
attr interpolationmode none
attr source rxPkFromHL
attr title "packet bytes from higher layer, count"
scalar BusLAN.host[1].eth[0].mac rxPkFromHL:sum(packetBytes) 4533474
attr interpolationmode none
attr source rxPkFromHL
attr title "packet bytes from higher layer, sum(packetBytes)"
scalar BusLAN.host[1].eth[0].mac rxPausePkUnits:count 0
attr interpolationmode none
attr title "pause units received, count"
scalar BusLAN.host[1].eth[0].mac rxPausePkUnits:sum 0
attr interpolationmode none
attr title "pause units received, sum"
scalar BusLAN.host[1].eth[0].mac txPausePkUnits:count 0
attr interpolationmode none
attr title "pause units sent, count"
scalar BusLAN.host[1].eth[0].mac txPausePkUnits:sum 0
attr interpolationmode none
attr title "pause units sent, sum"
scalar BusLAN.host[1].eth[0].mac txPk:count 6459
attr interpolationmode none
attr source txPk
attr title "packets transmitted, count"
scalar BusLAN.host[1].eth[0].mac txPk:sum(packetBytes) 4532436
attr interpolationmode none
attr source txPk
attr title "packets transmitted, sum(packetBytes)"
scalar BusLAN.host[1].eth[0].mac droppedPkNotForUs:count 53693
attr interpolationmode none
attr source dropPkNotForUs
attr title "packets dropped/not for us, count"
scalar BusLAN.host[1].eth[0].mac droppedPkNotForUs:sum(packetBytes) 38132796
attr interpolationmode none
attr source dropPkNotForUs
attr title "packets dropped/not for us, sum(packetBytes)"
scalar BusLAN.host[1].eth[0].mac droppedPkBitError:count 0
attr interpolationmode none
attr source dropPkBitError
attr title "packets dropped/bit error, count"
scalar BusLAN.host[1].eth[0].mac droppedPkBitError:sum(packetBytes) 0
attr interpolationmode none
attr source dropPkBitError
attr title "packets dropped/bit error, sum(packetBytes)"
scalar BusLAN.host[1].eth[0].mac droppedPkIfaceDown:count 0
attr interpolationmode none
attr source dropPkIfaceDown
attr title "packets dropped/interface down, count"
scalar BusLAN.host[1].eth[0].mac droppedPkIfaceDown:sum(packetBytes) 0
attr interpolationmode none
attr source dropPkIfaceDown
attr title "packets dropped/interface down, sum(packetBytes)"
scalar BusLAN.host[1].eth[0].mac rxPkOk:count 6461
attr interpolationmode none
attr source rxPkOk
attr title "packets received OK, count"
scalar BusLAN.host[1].eth[0].mac rxPkOk:sum(packetBytes) 4534017
attr interpolationmode none
attr source rxPkOk
attr title "packets received OK, sum(packetBytes)"
scalar BusLAN.host[1].eth[0].mac passedUpPk:count 6461
attr interpolationmode none
attr source packetSentToUpper
attr title "packets passed to higher layer, count"
scalar BusLAN.host[1].eth[0].mac passedUpPk:sum(packetBytes) 4534017
attr interpolationmode none
attr source packetSentToUpper
attr title "packets passed to higher layer, sum(packetBytes)"
scalar BusLAN.host[1].eth[0].encap pauseSent:count 0
attr title "pause sent, count"
scalar BusLAN.host[1].eth[0].encap pauseSent:sum 0
attr title "pause sent, sum"
scalar BusLAN.host[1].eth[0].encap decapPk:count 6461
attr interpolationmode none
attr source decapPk
attr title "packets decapsulated, count"
scalar BusLAN.host[1].eth[0].encap decapPk:sum(packetBytes) 4417012
attr interpolationmode none
attr source decapPk
attr title "packets decapsulated, sum(packetBytes)"
scalar BusLAN.host[1].eth[0].encap encapPk:count 6461
attr interpolationmode none
attr source encapPk
attr title "packets encapsulated, count"
scalar BusLAN.host[1].eth[0].encap encapPk:sum(packetBytes) 4417012
attr interpolationmode none
attr source encapPk
attr title "packets encapsulated, sum(packetBytes)"
scalar BusLAN.host[1].pingApp[0] "Pings sent" 202
scalar BusLAN.host[1].pingApp[0] "ping loss rate (%)" 0
scalar BusLAN.host[1].pingApp[0] "ping out-of-order rate (%)" 0
scalar BusLAN.host[1].pingApp[0] pingRxSeq:count 151
attr interpolationmode none
attr title "ping rx seq, count"
scalar BusLAN.host[1].pingApp[0] pingTxSeq:count 151
attr interpolationmode none
attr title "ping tx seq, count"
scalar BusLAN.host[1].pingApp[0] numOutOfOrderArrivals:last nan
attr interpolationmode none
attr title "ping out-of-order arrivals, last"
scalar BusLAN.host[1].pingApp[0] numLost:last nan
attr interpolationmode none
attr title "pings lost, last"
scalar BusLAN.host[1].pingApp[0] rtt:mean 0.0025495596117063
attr interpolationmode none
attr title "ping round-trip time, mean"
attr unit s
scalar BusLAN.host[1].pingApp[1] "Pings sent" 188
scalar BusLAN.host[1].pingApp[1] "ping loss rate (%)" 0
scalar BusLAN.host[1].pingApp[1] "ping out-of-order rate (%)" 0
scalar BusLAN.host[1].pingApp[1] pingRxSeq:count 143
attr interpolationmode none
attr title "ping rx seq, count"
scalar BusLAN.host[1].pingApp[1] pingTxSeq:count 143
attr interpolationmode none
attr title "ping tx seq, count"
scalar BusLAN.host[1].pingApp[1] numOutOfOrderArrivals:last nan
attr interpolationmode none
attr title "ping out-of-order arrivals, last"
scalar BusLAN.host[1].pingApp[1] numLost:last nan
attr interpolationmode none
attr title "pings lost, last"
scalar BusLAN.host[1].pingApp[1] rtt:mean 0.0025817574416484
attr interpolationmode none
attr title "ping round-trip time, mean"
attr unit s
scalar BusLAN.host[1].pingApp[2] "Pings sent" 188
scalar BusLAN.host[1].pingApp[2] "ping loss rate (%)" 0
scalar BusLAN.host[1].pingApp[2] "ping out-of-order rate (%)" 0
scalar BusLAN.host[1].pingApp[2] pingRxSeq:count 139
attr interpolationmode none
attr title "ping rx seq, count"
scalar BusLAN.host[1].pingApp[2] pingTxSeq:count 139
attr interpolationmode none
attr title "ping tx seq, count"
scalar BusLAN.host[1].pingApp[2] numOutOfOrderArrivals:last nan
attr interpolationmode none
attr title "ping out-of-order arrivals, last"
scalar BusLAN.host[1].pingApp[2] numLost:last nan
attr interpolationmode none
attr title "pings lost, last"
scalar BusLAN.host[1].pingApp[2] rtt:mean 0.000860660535375
attr interpolationmode none
attr title "ping round-trip time, mean"
attr unit s
scalar BusLAN.host[1].pingApp[3] "Pings sent" 203
scalar BusLAN.host[1].pingApp[3] "ping loss rate (%)" 0
scalar BusLAN.host[1].pingApp[3] "ping out-of-order rate (%)" 0
scalar BusLAN.host[1].pingApp[3] pingRxSeq:count 146
attr interpolationmode none
attr title "ping rx seq, count"
scalar BusLAN.host[1].pingApp[3] pingTxSeq:count 146
attr interpolationmode none
attr title "ping tx seq, count"
scalar BusLAN.host[1].pingApp[3] numOutOfOrderArrivals:last nan
attr interpolationmode none
attr title "ping out-of-order arrivals, last"
scalar BusLAN.host[1].pingApp[3] numLost:last nan
attr interpolationmode none
attr title "pings lost, last"
scalar BusLAN.host[1].pingApp[3] rtt:mean 0.0011458863245476
attr interpolationmode none
attr title "ping round-trip time, mean"
attr unit s
scalar BusLAN.host[1].pingApp[4] "Pings sent" 195
scalar BusLAN.host[1].pingApp[4] "ping loss rate (%)" 0
scalar BusLAN.host[1].pingApp[4] "ping out-of-order rate (%)" 0
scalar BusLAN.host[1].pingApp[4] pingRxSeq:count 150
attr interpolationmode none
attr title "ping rx seq, count"
scalar BusLAN.host[1].pingApp[4] pingTxSeq:count 150
attr interpolationmode none
attr title "ping tx seq, count"
scalar BusLAN.host[1].pingApp[4] numOutOfOrderArrivals:last nan
attr interpolationmode none
attr title "ping out-of-order arrivals, last"
scalar BusLAN.host[1].pingApp[4] numLost:last nan
attr interpolationmode none
attr title "pings lost, last"
scalar BusLAN.host[1].pingApp[4] rtt:mean 0.0017075217882061
attr interpolationmode none
attr title "ping round-trip time, mean"
attr unit s
scalar BusLAN.host[1].pingApp[5] "Pings sent" 198
scalar BusLAN.host[1].pingApp[5] "ping loss rate (%)" 0
scalar BusLAN.host[1].pingApp[5] "ping out-of-order rate (%)" 0
scalar BusLAN.host[1].pingApp[5] pingRxSeq:count 148
attr interpolationmode none
attr title "ping rx seq, count"
scalar BusLAN.host[1].pingApp[5] pingTxSeq:count 148
attr interpolationmode none
attr title "ping tx seq, count"
scalar BusLAN.host[1].pingApp[5] numOutOfOrderArrivals:last nan
attr interpolationmode none
attr title "ping out-of-order arrivals, last"
scalar BusLAN.host[1].pingApp[5] numLost:last nan
attr interpolationmode none
attr title "pings lost, last"
scalar BusLAN.host[1].pingApp[5] rtt:mean 0.0024505583018741
attr interpolationmode none
attr title "ping round-trip time, mean"
attr unit s
scalar BusLAN.host[1].pingApp[6] "Pings sent" 191
scalar BusLAN.host[1].pingApp[6] "ping loss rate (%)" 0
scalar BusLAN.host[1].pingApp[6] "ping out-of-order rate (%)" 0
scalar BusLAN.host[1].pingApp[6] pingRxSeq:count 142
attr interpolationmode none
attr title "ping rx seq, count"
scalar BusLAN.host[1].pingApp[6] pingTxSeq:count 142
attr interpolationmode none
attr title "ping tx seq, count"
scalar BusLAN.host[1].pingApp[6] numOutOfOrderArrivals:last nan
attr interpolationmode none
attr title "ping out-of-order arrivals, last"
scalar BusLAN.host[1].pingApp[6] numLost:last nan
attr interpolationmode none
attr title "pings lost, last"
scalar BusLAN.host[1].pingApp[6] rtt:mean 0.0011179473122595
attr interpolationmode none
attr title "ping round-trip time, mean"
attr unit s
scalar BusLAN.host[1].pingApp[7] "Pings sent" 192
scalar BusLAN.host[1].pingApp[7] "ping loss rate (%)" 0
scalar BusLAN.host[1].pingApp[7] "ping out-of-order rate (%)" 0
scalar BusLAN.host[1].pingApp[7] pingRxSeq:count 149
attr interpolationmode none
attr title "ping rx seq, count"
scalar BusLAN.host[1].pingApp[7] pingTxSeq:count 149
attr interpolationmode none
attr title "ping tx seq, count"
scalar BusLAN.host[1].pingApp[7] numOutOfOrderArrivals:last nan
attr interpolationmode none
attr title "ping out-of-order arrivals, last"
scalar BusLAN.host[1].pingApp[7] numLost:last nan
attr interpolationmode none
attr title "pings lost, last"
scalar BusLAN.host[1].pingApp[7] rtt:mean 0.0027217899841938
attr interpolationmode none
attr title "ping round-trip time, mean"
attr unit s
scalar BusLAN.host[1].pingApp[8] "Pings sent" 195
scalar BusLAN.host[1].pingApp[8] "ping loss rate (%)" 0
scalar BusLAN.host[1].pingApp[8] "ping out-of-order rate (%)" 0
scalar BusLAN.host[1].pingApp[8] pingRxSeq:count 148
attr interpolationmode none
attr title "ping rx seq, count"
scalar BusLAN.host[1].pingApp[8] pingTxSeq:count 148
attr interpolationmode none
attr title "ping tx seq, count"
scalar BusLAN.host[1].pingApp[8] numOutOfOrderArrivals:last nan
attr interpolationmode none
attr title "ping out-of-order arrivals, last"
scalar BusLAN.host[1].pingApp[8] numLost:last nan
attr interpolationmode none
attr title "pings lost, last"
scalar BusLAN.host[1].pingApp[8] rtt:mean 0.0016852107774733
attr interpolationmode none
attr title "ping round-trip time, mean"
attr unit s
scalar BusLAN.host[1].pingApp[9] "Pings sent" 199
scalar BusLAN.host[1].pingApp[9] "ping loss rate (%)" 0
scalar BusLAN.host[1].pingApp[9] "ping out-of-order rate (%)" 0
scalar BusLAN.host[1].pingApp[9] pingRxSeq:count 154
attr interpolationmode none
attr title "ping rx seq, count"
scalar BusLAN.host[1].pingApp[9] pingTxSeq:count 154
attr interpolationmode none
attr title "ping tx seq, count"
scalar BusLAN.host[1].pingApp[9] numOutOfOrderArrivals:last nan
attr interpolationmode none
attr title "ping out-of-order arrivals, last"
scalar BusLAN.host[1].pingApp[9] numLost:last nan
attr interpolationmode none
attr title "pings lost, last"
scalar BusLAN.host[1].pingApp[9] rtt:mean 0.0032526430043286
attr interpolationmode none
attr title "ping round-trip time, mean"
attr unit s
scalar BusLAN.host[1].pingApp[10] "Pings sent" 195
scalar BusLAN.host[1].pingApp[10] "ping loss rate (%)" 0
scalar BusLAN.host[1].pingApp[10] "ping out-of-order rate (%)" 0
scalar BusLAN.host[1].pingApp[10] pingRxSeq:count 147
attr interpolationmode none
attr title "ping rx seq, count"
scalar BusLAN.host[1].pingApp[10] pingTxSeq:count 147
attr interpolationmode none
attr title "ping tx seq, count"
scalar BusLAN.host[1].pingApp[10] numOutOfOrderArrivals:last nan
attr interpolationmode none
attr title "ping out-of-order arrivals, last"
scalar BusLAN.host[1].pingApp[10] numLost:last nan
attr interpolationmode none
attr title "pings lost, last"
scalar BusLAN.host[1].pingApp[10] rtt:mean 0.0019621350297578
attr interpolationmode none
attr title "ping round-trip time, mean"
attr unit s
scalar BusLAN.host[1].pingApp[11] "Pings sent" 191
scalar BusLAN.host[1].pingApp[11] "ping loss rate (%)" 0
scalar BusLAN.host[1].pingApp[11] "ping out-of-order rate (%)" 0
scalar BusLAN.host[1].pingApp[11] pingRxSeq:count 147
attr interpolationmode none
attr title "ping rx seq, count"
scalar BusLAN.host[1].pingApp[11] pingTxSeq:count 147
attr interpolationmode none
attr title "ping tx seq, count"
scalar BusLAN.host[1].pingApp[11] numOutOfOrderArrivals:last nan
attr interpolationmode none
attr title "ping out-of-order arrivals, last"
scalar BusLAN.host[1].pingApp[11] numLost:last nan
attr interpolationmode none
attr title "pings lost, last"
scalar BusLAN.host[1].pingApp[11] rtt:mean 0.0018351643272385
attr interpolationmode none
attr title "ping round-trip time, mean"
attr unit s
scalar BusLAN.host[1].pingApp[12] "Pings sent" 193
scalar BusLAN.host[1].pingApp[12] "ping loss rate (%)" 0
scalar BusLAN.host[1].pingApp[12] "ping out-of-order rate (%)" 0
scalar BusLAN.host[1].pingApp[12] pingRxSeq:count 147
attr interpolationmode none
attr title "ping rx seq, count"
scalar BusLAN.host[1].pingApp[12] pingTxSeq:count 147
attr interpolationmode none
attr title "ping tx seq, count"
scalar BusLAN.host[1].pingApp[12] numOutOfOrderArrivals:last nan
attr interpolationmode none
attr title "ping out-of-order arrivals, last"
scalar BusLAN.host[1].pingApp[12] numLost:last nan
attr interpolationmode none
attr title "pings lost, last"
scalar BusLAN.host[1].pingApp[12] rtt:mean 0.0025808005352231
attr interpolationmode none
attr title "ping round-trip time, mean"
attr unit s
scalar BusLAN.host[1].pingApp[13] "Pings sent" 199
scalar BusLAN.host[1].pingApp[13] "ping loss rate (%)" 0
scalar BusLAN.host[1].pingApp[13] "ping out-of-order rate (%)" 0
scalar BusLAN.host[1].pingApp[13] pingRxSeq:count 150
attr interpolationmode none
attr title "ping rx seq, count"
scalar BusLAN.host[1].pingApp[13] pingTxSeq:count 150
attr interpolationmode none
attr title "ping tx seq, count"
scalar BusLAN.host[1].pingApp[13] numOutOfOrderArrivals:last nan
attr interpolationmode none
attr title "ping out-of-order arrivals, last"
scalar BusLAN.host[1].pingApp[13] numLost:last nan
attr interpolationmode none
attr title "pings lost, last"
scalar BusLAN.host[1].pingApp[13] rtt:mean 0.0023055924789923
attr interpolationmode none
attr title "ping round-trip time, mean"
attr unit s
scalar BusLAN.host[1].pingApp[14] "Pings sent" 197
scalar BusLAN.host[1].pingApp[14] "ping loss rate (%)" 0
scalar BusLAN.host[1].pingApp[14] "ping out-of-order rate (%)" 0
scalar BusLAN.host[1].pingApp[14] pingRxSeq:count 147
attr interpolationmode none
attr title "ping rx seq, count"
scalar BusLAN.host[1].pingApp[14] pingTxSeq:count 147
attr interpolationmode none
attr title "ping tx seq, count"
scalar BusLAN.host[1].pingApp[14] numOutOfOrderArrivals:last nan
attr interpolationmode none
attr title "ping out-of-order arrivals, last"
scalar BusLAN.host[1].pingApp[14] numLost:last nan
attr interpolationmode none
attr title "pings lost, last"
scalar BusLAN.host[1].pingApp[14] rtt:mean 0.0030313534661894
attr interpolationmode none
attr title "ping round-trip time, mean"
attr unit s
scalar BusLAN.host[1].pingApp[15] "Pings sent" 200
scalar BusLAN.host[1].pingApp[15] "ping loss rate (%)" 0
scalar BusLAN.host[1].pingApp[15] "ping out-of-order rate (%)" 0
scalar BusLAN.host[1].pingApp[15] pingRxSeq:count 148
attr interpolationmode none
attr title "ping rx seq, count"
scalar BusLAN.host[1].pingApp[15] pingTxSeq:count 148
attr interpolationmode none
attr title "ping tx seq, count"
scalar BusLAN.host[1].pingApp[15] numOutOfOrderArrivals:last nan
attr interpolationmode none
attr title "ping out-of-order arrivals, last"
scalar BusLAN.host[1].pingApp[15] numLost:last nan
attr interpolationmode none
attr title "pings lost, last"
scalar BusLAN.host[1].pingApp[15] rtt:mean 0.0012226323124733
attr interpolationmode none
attr title "ping round-trip time, mean"
attr unit s
scalar BusLAN.host[2].networkLayer.arp sentReply:count 0
attr title "ARP replies sent, count"
scalar BusLAN.host[2].networkLayer.arp sentReq:count 0
attr title "ARP request sent, count"
scalar BusLAN.host[2].networkLayer.arp failedARPResolution:count 0
attr title "ARP failed resolutions, count"
scalar BusLAN.host[2].networkLayer.arp completedARPResolution:count 0
attr title "ARP completed resolutions, count"
scalar BusLAN.host[2].networkLayer.arp initiatedARPResolution:count 0
attr title "ARP initiated resolutions, count"
scalar BusLAN.host[2].lo0.lo droppedPkBitError:count 0
attr interpolationmode none
attr source dropPkBitError
attr title "packets dropped/bit error, count"
scalar BusLAN.host[2].lo0.lo droppedPkBitError:sum(packetBytes) 0
attr interpolationmode none
attr source dropPkBitError
attr title "packets dropped/bit error, sum(packetBytes)"
scalar BusLAN.host[2].lo0.lo rcvdPkFromHL:count 632
attr interpolationmode none
attr source packetReceivedFromUpper
attr title "packets received from higher layer, count"
scalar BusLAN.host[2].lo0.lo rcvdPkFromHL:sum(packetBytes) 397024
attr interpolationmode none
attr source packetReceivedFromUpper
attr title "packets received from higher layer, sum(packetBytes)"
scalar BusLAN.host[2].lo0.lo passedUpPk:count 632
attr interpolationmode none
attr source packetSentToUpper
attr title "packets passed to higher layer, count"
scalar BusLAN.host[2].lo0.lo passedUpPk:sum(packetBytes) 397024
attr interpolationmode none
attr source packetSentToUpper
attr title "packets passed to higher layer, sum(packetBytes)"
scalar BusLAN.host[2].eth[0].queue.pauseQueue queueLength:max nan
attr interpolationmode sample-hold
attr title "queue length, max"
scalar BusLAN.host[2].eth[0].queue.pauseQueue queueLength:timeavg nan
attr interpolationmode sample-hold
attr title "queue length, timeavg"
statistic BusLAN.host[2].eth[0].queue.pauseQueue queueingTime:histogram
field count 0
field mean nan
field stddev nan
field min nan
field max nan
field sum 0
field sqrsum 0
attr interpolationmode none
attr title "queueing time, histogram"
bin	-inf	0
bin	-0.5	0
bin	-0.46666666666667	0
bin	-0.43333333333333	0
bin	-0.4	0
bin	-0.36666666666667	0
bin	-0.33333333333333	0
bin	-0.3	0
bin	-0.26666666666667	0
bin	-0.23333333333333	0
bin	-0.2	0
bin	-0.16666666666667	0
bin	-0.13333333333333	0
bin	-0.1	0
bin	-0.066666666666667	0
bin	-0.033333333333333	0
bin	0	0
bin	0.033333333333333	0
bin	0.066666666666667	0
bin	0.1	0
bin	0.13333333333333	0
bin	0.16666666666667	0
bin	0.2	0
bin	0.23333333333333	0
bin	0.26666666666667	0
bin	0.3	0
bin	0.33333333333333	0
bin	0.36666666666667	0
bin	0.4	0
bin	0.43333333333333	0
bin	0.46666666666667	0
bin	0.5	0
scalar BusLAN.host[2].eth[0].queue.pauseQueue dropPk:count 0
attr interpolationmode none
attr source dropPkByQueue
attr title "dropped packets, count"
scalar BusLAN.host[2].eth[0].queue.pauseQueue dropPk:sum(packetBytes) 0
attr interpolationmode none
attr source dropPkByQueue
attr title "dropped packets, sum(packetBytes)"
scalar BusLAN.host[2].eth[0].queue.pauseQueue rcvdPk:count 0
attr interpolationmode none
attr title "received packets, count"
scalar BusLAN.host[2].eth[0].queue.pauseQueue rcvdPk:sum(packetBytes) 0
attr interpolationmode none
attr title "received packets, sum(packetBytes)"
scalar BusLAN.host[2].eth[0].queue.dataQueue queueLength:max 7
attr interpolationmode sample-hold
attr title "queue length, max"
scalar BusLAN.host[2].eth[0].queue.dataQueue queueLength:timeavg 0.19828028096291
attr interpolationmode sample-hold
attr title "queue length, timeavg"
statistic BusLAN.host[2].eth[0].queue.dataQueue queueingTime:histogram
field count 6395
field mean 0.00046508155889819
field stddev 0.00058122030453775
field min 0
field max 0.003567865373
field sum 2.9741965691539
field sqrsum 0.0035432461460018
attr interpolationmode none
attr title "queueing time, histogram"
bin	-inf	0
bin	-0.001526488569	0
bin	-0.0013229567598	0
bin	-0.0011194249506	0
bin	-0.0009158931414	0
bin	-0.0007123613322	0
bin	-0.000508829523	0
bin	-0.0003052977138	0
bin	-0.0001017659046	3309
bin	0.0001017659046	169
bin	0.0003052977138	170
bin	0.000508829523	148
bin	0.0007123613322	1742
bin	0.0009158931414	209
bin	0.0011194249506	161
bin	0.0013229567598	116
bin	0.001526488569	147
bin	0.0017300203782	84
bin	0.0019335521874	48
bin	0.0021370839966	34
bin	0.0023406158058	14
bin	0.002544147615	18
bin	0.0027476794242	6
bin	0.0029512112334	10
bin	0.0031547430426	3
bin	0.0033582748518	6
bin	0.003561806661	1
bin	0.0037653384702	0
bin	0.0039688702794	0
bin	0.0041724020886	0
bin	0.0043759338978	0
bin	0.004579465707	0
scalar BusLAN.host[2].eth[0].queue.dataQueue dropPk:count 0
attr interpolationmode none
attr source dropPkByQueue
attr title "dropped packets, count"
scalar BusLAN.host[2].eth[0].queue.dataQueue dropPk:sum(packetBytes) 0
attr interpolationmode none
attr source dropPkByQueue
attr title "dropped packets, sum(packetBytes)"
scalar BusLAN.host[2].eth[0].queue.dataQueue rcvdPk:count 6395
attr interpolationmode none
attr title "received packets, count"
scalar BusLAN.host[2].eth[0].queue.dataQueue rcvdPk:sum(packetBytes) 4383247
attr interpolationmode none
attr title "received packets, sum(packetBytes)"
scalar BusLAN.host[2].eth[0].mac "simulated time" 20
scalar BusLAN.host[2].eth[0].mac full-duplex 1
scalar BusLAN.host[2].eth[0].mac "frames/sec sent" 418.95
scalar BusLAN.host[2].eth[0].mac "frames/sec rcvd" 420.65
scalar BusLAN.host[2].eth[0].mac "bits/sec sent" 2293171.6
scalar BusLAN.host[2].eth[0].mac "bits/sec rcvd" 2293590.4
scalar BusLAN.host[2].eth[0].mac "rx channel idle (%)" -128.449536
scalar BusLAN.host[2].eth[0].mac "rx channel utilization (%)" 228.449536
scalar BusLAN.host[2].eth[0].mac rxPkFromHL:count 6395
attr interpolationmode none
attr source rxPkFromHL
attr title "packet bytes from higher layer, count"
scalar BusLAN.host[2].eth[0].mac rxPkFromHL:sum(packetBytes) 4383247
attr interpolationmode none
attr source rxPkFromHL
attr title "packet bytes from higher layer, sum(packetBytes)"
scalar BusLAN.host[2].eth[0].mac rxPausePkUnits:count 0
attr interpolationmode none
attr title "pause units received, count"
scalar BusLAN.host[2].eth[0].mac rxPausePkUnits:sum 0
attr interpolationmode none
attr title "pause units received, sum"
scalar BusLAN.host[2].eth[0].mac txPausePkUnits:count 0
attr interpolationmode none
attr title "pause units sent, count"
scalar BusLAN.host[2].eth[0].mac txPausePkUnits:sum 0
attr interpolationmode none
attr title "pause units sent, sum"
scalar BusLAN.host[2].eth[0].mac txPk:count 6395
attr interpolationmode none
attr source txPk
attr title "packets transmitted, count"
scalar BusLAN.host[2].eth[0].mac txPk:sum(packetBytes) 4383247
attr interpolationmode none
attr source txPk
attr title "packets transmitted, sum(packetBytes)"
scalar BusLAN.host[2].eth[0].mac droppedPkNotForUs:count 53825
attr interpolationmode none
attr source dropPkNotForUs
attr title "packets dropped/not for us, count"
scalar BusLAN.host[2].eth[0].mac droppedPkNotForUs:sum(packetBytes) 38434012
attr interpolationmode none
attr source dropPkNotForUs
attr title "packets dropped/not for us, sum(packetBytes)"
scalar BusLAN.host[2].eth[0].mac droppedPkBitError:count 0
attr interpolationmode none
attr source dropPkBitError
attr title "packets dropped/bit error, count"
scalar BusLAN.host[2].eth[0].mac droppedPkBitError:sum(packetBytes) 0
attr interpolationmode none
attr source dropPkBitError
attr title "packets dropped/bit error, sum(packetBytes)"
scalar BusLAN.host[2].eth[0].mac droppedPkIfaceDown:count 0
attr interpolationmode none
attr source dropPkIfaceDown
attr title "packets dropped/interface down, count"
scalar BusLAN.host[2].eth[0].mac droppedPkIfaceDown:sum(packetBytes) 0
attr interpolationmode none
attr source dropPkIfaceDown
attr title "packets dropped/interface down, sum(packetBytes)"
scalar BusLAN.host[2].eth[0].mac rxPkOk:count 6393
attr interpolationmode none
attr source rxPkOk
attr title "packets received OK, count"
scalar BusLAN.host[2].eth[0].mac rxPkOk:sum(packetBytes) 4381990
attr interpolationmode none
attr source rxPkOk
attr title "packets received OK, sum(packetBytes)"
scalar BusLAN.host[2].eth[0].mac passedUpPk:count 6393
attr interpolationmode none
attr source packetSentToUpper
attr title "packets passed to higher layer, count"
scalar BusLAN.host[2].eth[0].mac passedUpPk:sum(packetBytes) 4381990
attr interpolationmode none
attr source packetSentToUpper
attr title "packets passed to higher layer, sum(packetBytes)"
scalar BusLAN.host[2].eth[0].encap pauseSent:count 0
attr title "pause sent, count"
scalar BusLAN.host[2].eth[0].encap pauseSent:sum 0
attr title "pause sent, sum"
scalar BusLAN.host[2].eth[0].encap decapPk:count 6393
attr interpolationmode none
attr source decapPk
attr title "packets decapsulated, count"
scalar BusLAN.host[2].eth[0].encap decapPk:sum(packetBytes) 4266290
attr interpolationmode none
attr source decapPk
attr title "packets decapsulated, sum(packetBytes)"
scalar BusLAN.host[2].eth[0].encap encapPk:count 6395
attr interpolationmode none
attr source encapPk
attr title "packets encapsulated, count"
scalar BusLAN.host[2].eth[0].encap encapPk:sum(packetBytes) 4267511
attr interpolationmode none
attr source encapPk
attr title "packets encapsulated, sum(packetBytes)"
scalar BusLAN.host[2].pingApp[0] "Pings sent" 185
scalar BusLAN.host[2].pingApp[0] "ping loss rate (%)" 0
scalar BusLAN.host[2].pingApp[0] "ping out-of-order rate (%)" 0
scalar BusLAN.host[2].pingApp[0] pingRxSeq:count 139
attr interpolationmode none
attr title "ping rx seq, count"
scalar BusLAN.host[2].pingApp[0] pingTxSeq:count 139
attr interpolationmode none
attr title "ping tx seq, count"
scalar BusLAN.host[2].pingApp[0] numOutOfOrderArrivals:last nan
attr interpolationmode none
attr title "ping out-of-order arrivals, last"
scalar BusLAN.host[2].pingApp[0] numLost:last nan
attr interpolationmode none
attr title "pings lost, last"
scalar BusLAN.host[2].pingApp[0] rtt:mean 0.0030975098470484
attr interpolationmode none
attr title "ping round-trip time, mean"
attr unit s
scalar BusLAN.host[2].pingApp[1] "Pings sent" 190
scalar BusLAN.host[2].pingApp[1] "ping loss rate (%)" 0
scalar BusLAN.host[2].pingApp[1] "ping out-of-order rate (%)" 0
scalar BusLAN.host[2].pingApp[1] pingRxSeq:count 147
attr interpolationmode none
attr title "ping rx seq, count"
scalar BusLAN.host[2].pingApp[1] pingTxSeq:count 147
attr interpolationmode none
attr title "ping tx seq, count"
scalar BusLAN.host[2].pingApp[1] numOutOfOrderArrivals:last nan
attr interpolationmode none
attr title "ping out-of-order arrivals, last"
scalar BusLAN.host[2].pingApp[1] numLost:last nan
attr interpolationmode none
attr title "pings lost, last"
scalar BusLAN.host[2].pingApp[1] rtt:mean 0.0024805998606963
attr interpolationmode none
attr title "ping round-trip time, mean"
attr unit s
scalar BusLAN.host[2].pingApp[2] "Pings sent" 200
scalar BusLAN.host[2].pingApp[2] "ping loss rate (%)" 0
scalar BusLAN.host[2].pingApp[2] "ping out-of-order rate (%)" 0
scalar BusLAN.host[2].pingApp[2] pingRxSeq:count 148
attr interpolationmode none
attr title "ping rx seq, count"
scalar BusLAN.host[2].pingApp[2] pingTxSeq:count 148
attr interpolationmode none
attr title "ping tx seq, count"
scalar BusLAN.host[2].pingApp[2] numOutOfOrderArrivals:last nan
attr interpolationmode none
attr title "ping out-of-order arrivals, last"
scalar BusLAN.host[2].pingApp[2] numLost:last nan
attr interpolationmode none
attr title "pings lost, last"
scalar BusLAN.host[2].pingApp[2] rtt:mean 0.0029950023472117
attr interpolationmode none
attr title "ping round-trip time, mean"
attr unit s
scalar BusLAN.host[2].pingApp[3] "Pings sent" 203
scalar BusLAN.host[2].pingApp[3] "ping loss rate (%)" 0
scalar BusLAN.host[2].pingApp[3] "ping out-of-order rate (%)" 0
scalar BusLAN.host[2].pingApp[3] pingRxSeq:count 155
attr interpolationmode none
attr title "ping rx seq, count"
scalar BusLAN.host[2].pingApp[3] pingTxSeq:count 155
attr interpolationmode none
attr title "ping tx seq, count"
scalar BusLAN.host[2].pingApp[3] numOutOfOrderArrivals:last nan
attr interpolationmode none
attr title "ping out-of-order arrivals, last"
scalar BusLAN.host[2].pingApp[3] numLost:last nan
attr interpolationmode none
attr title "pings lost, last"
scalar BusLAN.host[2].pingApp[3] rtt:mean 0.0024554244297133
attr interpolationmode none
attr title "ping round-trip time, mean"
attr unit s
scalar BusLAN.host[2].pingApp[4] "Pings sent" 194
scalar BusLAN.host[2].pingApp[4] "ping loss rate (%)" 0
scalar BusLAN.host[2].pingApp[4] "ping out-of-order rate (%)" 0
scalar BusLAN.host[2].pingApp[4] pingRxSeq:count 146
attr interpolationmode none
attr title "ping rx seq, count"
scalar BusLAN.host[2].pingApp[4] pingTxSeq:count 146
attr interpolationmode none
attr title "ping tx seq, count"
scalar BusLAN.host[2].pingApp[4] numOutOfOrderArrivals:last nan
attr interpolationmode none
attr title "ping out-of-order arrivals, last"
scalar BusLAN.host[2].pingApp[4] numLost:last nan
attr interpolationmode none
attr title "pings lost, last"
scalar BusLAN.host[2].pingApp[4] rtt:mean 0.0013114226222993
attr interpolationmode none
attr title "ping round-trip time, mean"
attr unit s
scalar BusLAN.host[2].pingApp[5] "Pings sent" 194
scalar BusLAN.host[2].pingApp[5] "ping loss rate (%)" 0
scalar BusLAN.host[2].pingApp[5] "ping out-of-order rate (%)" 0
scalar BusLAN.host[2].pingApp[5] pingRxSeq:count 153
attr interpolationmode none
attr title "ping rx seq, count"
scalar BusLAN.host[2].pingApp[5] pingTxSeq:count 153
attr interpolationmode none
attr title "ping tx seq, count"
scalar BusLAN.host[2].pingApp[5] numOutOfOrderArrivals:last nan
attr interpolationmode none
attr title "ping out-of-order arrivals, last"
scalar BusLAN.host[2].pingApp[5] numLost:last nan
attr interpolationmode none
attr title "pings lost, last"
scalar BusLAN.host[2].pingApp[5] rtt:mean 0.00079420568041606
attr interpolationmode none
attr title "ping round-trip time, mean"
attr unit s
scalar BusLAN.host[2].pingApp[6] "Pings sent" 183
scalar BusLAN.host[2].pingApp[6] "ping loss rate (%)" 0
scalar BusLAN.host[2].pingApp[6] "ping out-of-order rate (%)" 0
scalar BusLAN.host[2].pingApp[6] pingRxSeq:count 142
attr interpolationmode none
attr title "ping rx seq, count"
scalar BusLAN.host[2].pingApp[6] pingTxSeq:count 142
attr interpolationmode none
attr title "ping tx seq, count"
scalar BusLAN.host[2].pingApp[6] numOutOfOrderArrivals:last nan
attr interpolationmode none
attr title "ping out-of-order arrivals, last"
scalar BusLAN.host[2].pingApp[6] numLost:last nan
attr interpolationmode none
attr title "pings lost, last"
scalar BusLAN.host[2].pingApp[6] rtt:mean 0.0012050861509837
attr interpolationmode none
attr title "ping round-trip time, mean"
attr unit s
scalar BusLAN.host[2].pingApp[7] "Pings sent" 191
scalar BusLAN.host[2].pingApp[7] "ping loss rate (%)" 0
scalar BusLAN.host[2].pingApp[7] "ping out-of-order rate (%)" 0
scalar BusLAN.host[2].pingApp[7] pingRxSeq:count 145
attr interpolationmode none
attr title "ping rx seq, count"
scalar BusLAN.host[2].pingApp[7] pingTxSeq:count 145
attr interpolationmode none
attr title "ping tx seq, count"
scalar BusLAN.host[2].pingApp[7] numOutOfOrderArrivals:last nan
attr interpolationmode none
attr title "ping out-of-order arrivals, last"
scalar BusLAN.host[2].pingApp[7] numLost:last nan
attr interpolationmode none
attr title "pings lost, last"
scalar BusLAN.host[2].pingApp[7] rtt:mean 0.0014606957155827
attr interpolationmode none
attr title "ping round-trip time, mean"
attr unit s
scalar BusLAN.host[2].pingApp[8] "Pings sent" 192
scalar BusLAN.host[2].pingApp[8] "ping loss rate (%)" 0
scalar BusLAN.host[2].pingApp[8] "ping out-of-order rate (%)" 0
scalar BusLAN.host[2].pingApp[8] pingRxSeq:count 149
attr interpolationmode none
attr title "ping rx seq, count"
scalar BusLAN.host[2].pingApp[8] pingTxSeq:count 149
attr interpolationmode none
attr title "ping tx seq, count"
scalar BusLAN.host[2].pingApp[8] numOutOfOrderArrivals:last nan
attr interpolationmode none
attr title "ping out-of-order arrivals, last"
scalar BusLAN.host[2].pingApp[8] numLost:last nan
attr interpolationmode none
attr title "pings lost, last"
scalar BusLAN.host[2].pingApp[8] rtt:mean 0.0012239200248788
attr interpolationmode none
attr title "ping round-trip time, mean"
attr unit s
scalar BusLAN.host[2].pingApp[9] "Pings sent" 196
scalar BusLAN.host[2].pingApp[9] "ping loss rate (%)" 0
scalar BusLAN.host[2].pingApp[9] "ping out-of-order rate (%)" 0
scalar BusLAN.host[2].pingApp[9] pingRxSeq:count 148
attr interpolationmode none
attr title "ping rx seq, count"
scalar BusLAN.host[2].pingApp[9] pingTxSeq:count 148
attr interpolationmode none
attr title "ping tx seq, count"
scalar BusLAN.host[2].pingApp[9] numOutOfOrderArrivals:last nan
attr interpolationmode none
attr title "ping out-of-order arrivals, last"
scalar BusLAN.host[2].pingApp[9] numLost:last nan
attr interpolationmode none
attr title "pings lost, last"
scalar BusLAN.host[2].pingApp[9] rtt:mean 0.0016254059825448
attr interpolationmode none
attr title "ping round-trip time, mean"
attr unit s
scalar BusLAN.host[2].pingApp[10] "Pings sent" 195
scalar BusLAN.host[2].pingApp[10] "ping loss rate (%)" 0
scalar BusLAN.host[2].pingApp[10] "ping out-of-order rate (%)" 0
scalar BusLAN.host[2].pingApp[10] pingRxSeq:count 153
attr interpolationmode none
attr title "ping rx seq, count"
scalar BusLAN.host[2].pingApp[10] pingTxSeq:count 153
attr interpolationmode none
attr title "ping tx seq, count"
scalar BusLAN.host[2].pingApp[10] numOutOfOrderArrivals:last nan
attr interpolationmode none
attr title "ping out-of-order arrivals, last"
scalar BusLAN.host[2].pingApp[10] numLost:last nan
attr interpolationmode none
attr title "pings lost, last"
scalar BusLAN.host[2].pingApp[10] rtt:mean 0.0027631491600714
attr interpolationmode none
attr title "ping round-trip time, mean"
attr unit s
scalar BusLAN.host[2].pingApp[11] "Pings sent" 194
scalar BusLAN.host[2].pingApp[11] "ping loss rate (%)" 0
scalar BusLAN.host[2].pingApp[11] "ping out-of-order rate (%)" 0
scalar BusLAN.host[2].pingApp[11] pingRxSeq:count 145
attr interpolationmode none
attr title "ping rx seq, count"
scalar BusLAN.host[2].pingApp[11] pingTxSeq:count 145
attr interpolationmode none
attr title "ping tx seq, count"
scalar BusLAN.host[2].pingApp[11] numOutOfOrderArrivals:last nan
attr interpolationmode none
attr title "ping out-of-order arrivals, last"
scalar BusLAN.host[2].pingApp[11] numLost:last nan
attr interpolationmode none
attr title "pings lost, last"
scalar BusLAN.host[2].pingApp[11] rtt:mean 0.00096869093870769
attr interpolationmode none
attr title "ping round-trip time, mean"
attr unit s
scalar BusLAN.host[2].pingApp[12] "Pings sent" 198
scalar BusLAN.host[2].pingApp[12] "ping loss rate (%)" 0
scalar BusLAN.host[2].pingApp[12] "ping out-of-order rate (%)" 0
scalar BusLAN.host[2].pingApp[12] pingRxSeq:count 154
attr interpolationmode none
attr title "ping rx seq, count"
scalar BusLAN.host[2].pingApp[12] pingTxSeq:count 154
attr interpolationmode none
attr title "ping tx seq, count"
scalar BusLAN.host[2].pingApp[12] numOutOfOrderArrivals:last nan
attr interpolationmode none
attr title "ping out-of-order arrivals, last"
scalar BusLAN.host[2].pingApp[12] numLost:last nan
attr interpolationmode none
attr title "pings lost, last"
scalar BusLAN.host[2].pingApp[12] rtt:mean 0.0022685769598286
attr interpolationmode none
attr title "ping round-trip time, mean"
attr unit s
scalar BusLAN.host[2].pingApp[13] "Pings sent" 191
scalar BusLAN.host[2].pingApp[13] "ping loss rate (%)" 0
scalar BusLAN.host[2].pingApp[13] "ping out-of-order rate (%)" 0
scalar BusLAN.host[2].pingApp[13] pingRxSeq:count 145
attr interpolationmode none
attr title "ping rx seq, count"
scalar BusLAN.host[2].pingApp[13] pingTxSeq:count 145
attr interpolationmode none
attr title "ping tx seq, count"
scalar BusLAN.host[2].pingApp[13] numOutOfOrderArrivals:last nan
attr interpolationmode none
attr title "ping out-of-order arrivals, last"
scalar BusLAN.host[2].pingApp[13] numLost:last nan
attr interpolationmode none
attr title "pings lost, last"
scalar BusLAN.host[2].pingApp[13] rtt:mean 0.0016107836976077
attr interpolationmode none
attr title "ping round-trip time, mean"
attr unit s
scalar BusLAN.host[2].pingApp[14] "Pings sent" 202
scalar BusLAN.host[2].pingApp[14] "ping loss rate (%)" 0
scalar BusLAN.host[2].pingApp[14] "ping out-of-order rate (%)" 0
scalar BusLAN.host[2].pingApp[14] pingRxSeq:count 151
attr interpolationmode none
attr title "ping rx seq, count"
scalar BusLAN.host[2].pingApp[14] pingTxSeq:count 151
attr interpolationmode none
attr title "ping tx seq, count"
scalar BusLAN.host[2].pingApp[14] numOutOfOrderArrivals:last nan
attr interpolationmode none
attr title "ping out-of-order arrivals, last"
scalar BusLAN.host[2].pingApp[14] numLost:last nan
attr interpolationmode none
attr title "pings lost, last"
scalar BusLAN.host[2].pingApp[14] rtt:mean 0.0014321261389577
attr interpolationmode none
attr title "ping round-trip time, mean"
attr unit s
scalar BusLAN.host[2].pingApp[15] "Pings sent" 200
scalar BusLAN.host[2].pingApp[15] "ping loss rate (%)" 0.5
scalar BusLAN.host[2].pingApp[15] "ping out-of-order rate (%)" 0
scalar BusLAN.host[2].pingApp[15] pingRxSeq:count 153
attr interpolationmode none
attr title "ping rx seq, count"
scalar BusLAN.host[2].pingApp[15] pingTxSeq:count 154
attr interpolationmode none
attr title "ping tx seq, count"
scalar BusLAN.host[2].pingApp[15] numOutOfOrderArrivals:last nan
attr interpolationmode none
attr title "ping out-of-order arrivals, last"
scalar BusLAN.host[2].pingApp[15] numLost:last nan
attr interpolationmode none
attr title "pings lost, last"
scalar BusLAN.host[2].pingApp[15] rtt:mean 0.0024859603123478
attr interpolationmode none
attr title "ping round-trip time, mean"
attr unit s
scalar BusLAN.host[3].networkLayer.arp sentReply:count 0
attr title "ARP replies sent, count"
scalar BusLAN.host[3].networkLayer.arp sentReq:count 0
attr title "ARP request sent, count"
scalar BusLAN.host[3].networkLayer.arp failedARPResolution:count 0
attr title "ARP failed resolutions, count"
scalar BusLAN.host[3].networkLayer.arp completedARPResolution:count 0
attr title "ARP completed resolutions, count"
scalar BusLAN.host[3].networkLayer.arp initiatedARPResolution:count 0
attr title "ARP initiated resolutions, count"
scalar BusLAN.host[3].lo0.lo droppedPkBitError:count 0
attr interpolationmode none
attr source dropPkBitError
attr title "packets dropped/bit error, count"
scalar BusLAN.host[3].lo0.lo droppedPkBitError:sum(packetBytes) 0
attr interpolationmode none
attr source dropPkBitError
attr title "packets dropped/bit error, sum(packetBytes)"
scalar BusLAN.host[3].lo0.lo rcvdPkFromHL:count 676
attr interpolationmode none
attr source packetReceivedFromUpper
attr title "packets received from higher layer, count"
scalar BusLAN.host[3].lo0.lo rcvdPkFromHL:sum(packetBytes) 441272
attr interpolationmode none
attr source packetReceivedFromUpper
attr title "packets received from higher layer, sum(packetBytes)"
scalar BusLAN.host[3].lo0.lo passedUpPk:count 676
attr interpolationmode none
attr source packetSentToUpper
attr title "packets passed to higher layer, count"
scalar BusLAN.host[3].lo0.lo passedUpPk:sum(packetBytes) 441272
attr interpolationmode none
attr source packetSentToUpper
attr title "packets passed to higher layer, sum(packetBytes)"
scalar BusLAN.host[3].eth[0].queue.pauseQueue queueLength:max nan
attr interpolationmode sample-hold
attr title "queue length, max"
scalar BusLAN.host[3].eth[0].queue.pauseQueue queueLength:timeavg nan
attr interpolationmode sample-hold
attr title "queue length, timeavg"
statistic BusLAN.host[3].eth[0].queue.pauseQueue queueingTime:histogram
field count 0
field mean nan
field stddev nan
field min nan
field max nan
field sum 0
field sqrsum 0
attr interpolationmode none
attr title "queueing time, histogram"
bin	-inf	0
bin	-0.5	0
bin	-0.46666666666667	0
bin	-0.43333333333333	0
bin	-0.4	0
bin	-0.36666666666667	0
bin	-0.33333333333333	0
bin	-0.3	0
bin	-0.26666666666667	0
bin	-0.23333333333333	0
bin	-0.2	0
bin	-0.16666666666667	0
bin	-0.13333333333333	0
bin	-0.1	0
bin	-0.066666666666667	0
bin	-0.033333333333333	0
bin	0	0
bin	0.033333333333333	0
bin	0.066666666666667	0
bin	0.1	0
bin	0.13333333333333	0
bin	0.16666666666667	0
bin	0.2	0
bin	0.23333333333333	0
bin	0.26666666666667	0
bin	0.3	0
bin	0.33333333333333	0
bin	0.36666666666667	0
bin	0.4	0
bin	0.43333333333333	0
bin	0.46666666666667	0
bin	0.5	0
scalar BusLAN.host[3].eth[0].queue.pauseQueue dropPk:count 0
attr interpolationmode none
attr source dropPkByQueue
attr title "dropped packets, count"
scalar BusLAN.host[3].eth[0].queue.pauseQueue dropPk:sum(packetBytes) 0
attr interpolationmode none
attr source dropPkByQueue
attr title "dropped packets, sum(packetBytes)"
scalar BusLAN.host[3].eth[0].queue.pauseQueue rcvdPk:count 0
attr interpolationmode none
attr title "received packets, count"
scalar BusLAN.host[3].eth[0].queue.pauseQueue rcvdPk:sum(packetBytes) 0
attr interpolationmode none
attr title "received packets, sum(packetBytes)"
scalar BusLAN.host[3].eth[0].queue.dataQueue queueLength:max 6
attr interpolationmode sample-hold
attr title "queue length, max"
scalar BusLAN.host[3].eth[0].queue.dataQueue queueLength:timeavg 0.20242782903972
attr interpolationmode sample-hold
attr title "queue length, timeavg"
statistic BusLAN.host[3].eth[0].queue.dataQueue queueingTime:histogram
field count 6479
field mean 0.00046854345430296
field stddev 0.00057499976077251
field min 0
field max 0.003932430676
field sum 3.0356930404289
field sqrsum 0.0035641410711934
attr interpolationmode none
attr title "queueing time, histogram"
bin	-inf	0
bin	-0.0007188988355	0
bin	-0.00062304565743333	0
bin	-0.00052719247936667	0
bin	-0.0004313393013	0
bin	-0.00033548612323333	0
bin	-0.00023963294516667	0
bin	-0.0001437797671	0
bin	-4.7926589033333e-005	3253
bin	4.7926589033333e-005	83
bin	0.0001437797671	83
bin	0.00023963294516667	78
bin	0.00033548612323333	80
bin	0.0004313393013	77
bin	0.00052719247936667	97
bin	0.00062304565743333	74
bin	0.0007188988355	57
bin	0.00081475201356667	1763
bin	0.00091060519163333	91
bin	0.0010064583697	73
bin	0.0011023115477667	79
bin	0.0011981647258333	64
bin	0.0012940179039	55
bin	0.0013898710819667	76
bin	0.0014857242600333	47
bin	0.0015815774381	46
bin	0.0016774306161667	121
bin	0.0017732837942333	33
bin	0.0018691369723	30
bin	0.0019649901503667	22
bin	0.0020608433284333	13
bin	0.0021566965065	84
scalar BusLAN.host[3].eth[0].queue.dataQueue dropPk:count 0
attr interpolationmode none
attr source dropPkByQueue
attr title "dropped packets, count"
scalar BusLAN.host[3].eth[0].queue.dataQueue dropPk:sum(packetBytes) 0
attr interpolationmode none
attr source dropPkByQueue
attr title "dropped packets, sum(packetBytes)"
scalar BusLAN.host[3].eth[0].queue.dataQueue rcvdPk:count 6479
attr interpolationmode none
attr title "received packets, count"
scalar BusLAN.host[3].eth[0].queue.dataQueue rcvdPk:sum(packetBytes) 4467084
attr interpolationmode none
attr title "received packets, sum(packetBytes)"
scalar BusLAN.host[3].eth[0].mac "simulated time" 20
scalar BusLAN.host[3].eth[0].mac full-duplex 1
scalar BusLAN.host[3].eth[0].mac "frames/sec sent" 430.4
scalar BusLAN.host[3].eth[0].mac "frames/sec rcvd" 432.2
scalar BusLAN.host[3].eth[0].mac "bits/sec sent" 2370948.4
scalar BusLAN.host[3].eth[0].mac "bits/sec rcvd" 2371870
scalar BusLAN.host[3].eth[0].mac "rx channel idle (%)" -127.66444
scalar BusLAN.host[3].eth[0].mac "rx channel utilization (%)" 227.66444
scalar BusLAN.host[3].eth[0].mac rxPkFromHL:count 6479
attr interpolationmode none
attr source rxPkFromHL
attr title "packet bytes from higher layer, count"
scalar BusLAN.host[3].eth[0].mac rxPkFromHL:sum(packetBytes) 4467084
attr interpolationmode none
attr source rxPkFromHL
attr title "packet bytes from higher layer, sum(packetBytes)"
scalar BusLAN.host[3].eth[0].mac rxPausePkUnits:count 0
attr interpolationmode none
attr title "pause units received, count"
scalar BusLAN.host[3].eth[0].mac rxPausePkUnits:sum 0
attr interpolationmode none
attr title "pause units received, sum"
scalar BusLAN.host[3].eth[0].mac txPausePkUnits:count 0
attr interpolationmode none
attr title "pause units sent, count"
scalar BusLAN.host[3].eth[0].mac txPausePkUnits:sum 0
attr interpolationmode none
attr title "pause units sent, sum"
scalar BusLAN.host[3].eth[0].mac txPk:count 6480
attr interpolationmode none
attr source txPk
attr title "packets transmitted, count"
scalar BusLAN.host[3].eth[0].mac txPk:sum(packetBytes) 4467909
attr interpolationmode none
attr source txPk
attr title "packets transmitted, sum(packetBytes)"
scalar BusLAN.host[3].eth[0].mac droppedPkNotForUs:count 53653
attr interpolationmode none
attr source dropPkNotForUs
attr title "packets dropped/not for us, count"
scalar BusLAN.host[3].eth[0].mac droppedPkNotForUs:sum(packetBytes) 38263431
attr interpolationmode none
attr source dropPkNotForUs
attr title "packets dropped/not for us, sum(packetBytes)"
scalar BusLAN.host[3].eth[0].mac droppedPkBitError:count 0
attr interpolationmode none
attr source dropPkBitError
attr title "packets dropped/bit error, count"
scalar BusLAN.host[3].eth[0].mac droppedPkBitError:sum(packetBytes) 0
attr interpolationmode none
attr source dropPkBitError
attr title "packets dropped/bit error, sum(packetBytes)"
scalar BusLAN.host[3].eth[0].mac droppedPkIfaceDown:count 0
attr interpolationmode none
attr source dropPkIfaceDown
attr title "packets dropped/interface down, count"
scalar BusLAN.host[3].eth[0].mac droppedPkIfaceDown:sum(packetBytes) 0
attr interpolationmode none
attr source dropPkIfaceDown
attr title "packets dropped/interface down, sum(packetBytes)"
scalar BusLAN.host[3].eth[0].mac rxPkOk:count 6480
attr interpolationmode none
attr source rxPkOk
attr title "packets received OK, count"
scalar BusLAN.host[3].eth[0].mac rxPkOk:sum(packetBytes) 4467909
attr interpolationmode none
attr source rxPkOk
attr title "packets received OK, sum(packetBytes)"
scalar BusLAN.host[3].eth[0].mac passedUpPk:count 6480
attr interpolationmode none
attr source packetSentToUpper
attr title "packets passed to higher layer, count"
scalar BusLAN.host[3].eth[0].mac passedUpPk:sum(packetBytes) 4467909
attr interpolationmode none
attr source packetSentToUpper
attr title "packets passed to higher layer, sum(packetBytes)"
scalar BusLAN.host[3].eth[0].encap pauseSent:count 0
attr title "pause sent, count"
scalar BusLAN.host[3].eth[0].encap pauseSent:sum 0
attr title "pause sent, sum"
scalar BusLAN.host[3].eth[0].encap decapPk:count 6480
attr interpolationmode none
attr source decapPk
attr title "packets decapsulated, count"
scalar BusLAN.host[3].eth[0].encap decapPk:sum(packetBytes) 4350137
attr interpolationmode none
attr source decapPk
attr title "packets decapsulated, sum(packetBytes)"
scalar BusLAN.host[3].eth[0].encap encapPk:count 6479
attr interpolationmode none
attr source encapPk
attr title "packets encapsulated, count"
scalar BusLAN.host[3].eth[0].encap encapPk:sum(packetBytes) 4349330
attr interpolationmode none
attr source encapPk
attr title "packets encapsulated, sum(packetBytes)"
scalar BusLAN.host[3].pingApp[0] "Pings sent" 201
scalar BusLAN.host[3].pingApp[0] "ping loss rate (%)" 0
scalar BusLAN.host[3].pingApp[0] "ping out-of-order rate (%)" 0
scalar BusLAN.host[3].pingApp[0] pingRxSeq:count 145
attr interpolationmode none
attr title "ping rx seq, count"
scalar BusLAN.host[3].pingApp[0] pingTxSeq:count 145
attr interpolationmode none
attr title "ping tx seq, count"
scalar BusLAN.host[3].pingApp[0] numOutOfOrderArrivals:last nan
attr interpolationmode none
attr title "ping out-of-order arrivals, last"
scalar BusLAN.host[3].pingApp[0] numLost:last nan
attr interpolationmode none
attr title "pings lost, last"
scalar BusLAN.host[3].pingApp[0] rtt:mean 0.0021962976636641
attr interpolationmode none
attr title "ping round-trip time, mean"
attr unit s
scalar BusLAN.host[3].pingApp[1] "Pings sent" 188
scalar BusLAN.host[3].pingApp[1] "ping loss rate (%)" 0
scalar BusLAN.host[3].pingApp[1] "ping out-of-order rate (%)" 0
scalar BusLAN.host[3].pingApp[1] pingRxSeq:count 144
attr interpolationmode none
attr title "ping rx seq, count"
scalar BusLAN.host[3].pingApp[1] pingTxSeq:count 144
attr interpolationmode none
attr title "ping tx seq, count"
scalar BusLAN.host[3].pingApp[1] numOutOfOrderArrivals:last nan
attr interpolationmode none
attr title "ping out-of-order arrivals, last"
scalar BusLAN.host[3].pingApp[1] numLost:last nan
attr interpolationmode none
attr title "pings lost, last"
scalar BusLAN.host[3].pingApp[1] rtt:mean 0.0014928974085781
attr interpolationmode none
attr title "ping round-trip time, mean"
attr unit s
scalar BusLAN.host[3].pingApp[2] "Pings sent" 190
scalar BusLAN.host[3].pingApp[2] "ping loss rate (%)" 0
scalar BusLAN.host[3].pingApp[2] "ping out-of-order rate (%)" 0
scalar BusLAN.host[3].pingApp[2] pingRxSeq:count 141
attr interpolationmode none
attr title "ping rx seq, count"
scalar BusLAN.host[3].pingApp[2] pingTxSeq:count 141
attr interpolationmode none
attr title "ping tx seq, count"
scalar BusLAN.host[3].pingApp[2] numOutOfOrderArrivals:last nan
attr interpolationmode none
attr title "ping out-of-order arrivals, last"
scalar BusLAN.host[3].pingApp[2] numLost:last nan
attr interpolationmode none
attr title "pings lost, last"
scalar BusLAN.host[3].pingApp[2] rtt:mean 0.0015782987684462
attr interpolationmode none
attr title "ping round-trip time, mean"
attr unit s
scalar BusLAN.host[3].pingApp[3] "Pings sent" 187
scalar BusLAN.host[3].pingApp[3] "ping loss rate (%)" 0
scalar BusLAN.host[3].pingApp[3] "ping out-of-order rate (%)" 0
scalar BusLAN.host[3].pingApp[3] pingRxSeq:count 138
attr interpolationmode none
attr title "ping rx seq, count"
scalar BusLAN.host[3].pingApp[3] pingTxSeq:count 138
attr interpolationmode none
attr title "ping tx seq, count"
scalar BusLAN.host[3].pingApp[3] numOutOfOrderArrivals:last nan
attr interpolationmode none
attr title "ping out-of-order arrivals, last"
scalar BusLAN.host[3].pingApp[3] numLost:last nan
attr interpolationmode none
attr title "pings lost, last"
scalar BusLAN.host[3].pingApp[3] rtt:mean 0.0023681542111667
attr interpolationmode none
attr title "ping round-trip time, mean"
attr unit s
scalar BusLAN.host[3].pingApp[4] "Pings sent" 186
scalar BusLAN.host[3].pingApp[4] "ping loss rate (%)" 0
scalar BusLAN.host[3].pingApp[4] "ping out-of-order rate (%)" 0
scalar BusLAN.host[3].pingApp[4] pingRxSeq:count 145
attr interpolationmode none
attr title "ping rx seq, count"
scalar BusLAN.host[3].pingApp[4] pingTxSeq:count 145
attr interpolationmode none
attr title "ping tx seq, count"
scalar BusLAN.host[3].pingApp[4] numOutOfOrderArrivals:last nan
attr interpolationmode none
attr title "ping out-of-order arrivals, last"
scalar BusLAN.host[3].pingApp[4] numLost:last nan
attr interpolationmode none
attr title "pings lost, last"
scalar BusLAN.host[3].pingApp[4] rtt:mean 0.0021316329754
attr interpolationmode none
attr title "ping round-trip time, mean"
attr unit s
scalar BusLAN.host[3].pingApp[5] "Pings sent" 193
scalar BusLAN.host[3].pingApp[5] "ping loss rate (%)" 0
scalar BusLAN.host[3].pingApp[5] "ping out-of-order rate (%)" 0
[...]
field max nan
field sum 0
field sqrsum 0
attr interpolationmode none
attr title "queueing time, histogram"
bin	-inf	0
bin	-0.5	0
bin	-0.46666666666667	0
bin	-0.43333333333333	0
bin	-0.4	0
bin	-0.36666666666667	0
bin	-0.33333333333333	0
bin	-0.3	0
bin	-0.26666666666667	0
bin	-0.23333333333333	0
bin	-0.2	0
bin	-0.16666666666667	0
bin	-0.13333333333333	0
bin	-0.1	0
bin	-0.066666666666667	0
bin	-0.033333333333333	0
bin	0	0
bin	0.033333333333333	0
bin	0.066666666666667	0
bin	0.1	0
bin	0.13333333333333	0
bin	0.16666666666667	0
bin	0.2	0
bin	0.23333333333333	0
bin	0.26666666666667	0
bin	0.3	0
bin	0.33333333333333	0
bin	0.36666666666667	0
bin	0.4	0
bin	0.43333333333333	0
bin	0.46666666666667	0
bin	0.5	0
scalar BusLAN.host[9].eth[0].queue.pauseQueue dropPk:count 0
attr interpolationmode none
attr source dropPkByQueue
attr title "dropped packets, count"
scalar BusLAN.host[9].eth[0].queue.pauseQueue dropPk:sum(packetBytes) 0
attr interpolationmode none
attr source dropPkByQueue
attr title "dropped packets, sum(packetBytes)"
scalar BusLAN.host[9].eth[0].queue.pauseQueue rcvdPk:count 0
attr interpolationmode none
attr title "received packets, count"
scalar BusLAN.host[9].eth[0].queue.pauseQueue rcvdPk:sum(packetBytes) 0
attr interpolationmode none
attr title "received packets, sum(packetBytes)"
scalar BusLAN.host[9].eth[0].queue.dataQueue queueLength:max 8
attr interpolationmode sample-hold
attr title "queue length, max"
scalar BusLAN.host[9].eth[0].queue.dataQueue queueLength:timeavg 0.22803634789961
attr interpolationmode sample-hold
attr title "queue length, timeavg"
statistic BusLAN.host[9].eth[0].queue.dataQueue queueingTime:histogram
field count 6452
field mean 0.00053007915517264
field stddev 0.0006457646829271
field min 0
field max 0.004324625516
field sum 3.4200707091739
field sqrsum 0.0045030527700431
attr interpolationmode none
attr title "queueing time, histogram"
bin	-inf	0
bin	-0.0013279436595	0
bin	-0.0011508845049	0
bin	-0.0009738253503	0
bin	-0.0007967661957	0
bin	-0.0006197070411	0
bin	-0.0004426478865	0
bin	-0.0002655887319	0
bin	-8.85295773e-005	3158
bin	8.85295773e-005	125
bin	0.0002655887319	156
bin	0.0004426478865	129
bin	0.0006197070411	111
bin	0.0007967661957	1749
bin	0.0009738253503	176
bin	0.0011508845049	147
bin	0.0013279436595	101
bin	0.0015050028141	77
bin	0.0016820619687	255
bin	0.0018591211233	75
bin	0.0020361802779	64
bin	0.0022132394325	34
bin	0.0023902985871	17
bin	0.0025673577417	31
bin	0.0027444168963	18
bin	0.0029214760509	12
bin	0.0030985352055	5
bin	0.0032755943601	1
bin	0.0034526535147	4
bin	0.0036297126693	4
bin	0.0038067718239	2
bin	0.0039838309785	1
scalar BusLAN.host[9].eth[0].queue.dataQueue dropPk:count 0
attr interpolationmode none
attr source dropPkByQueue
attr title "dropped packets, count"
scalar BusLAN.host[9].eth[0].queue.dataQueue dropPk:sum(packetBytes) 0
attr interpolationmode none
attr source dropPkByQueue
attr title "dropped packets, sum(packetBytes)"
scalar BusLAN.host[9].eth[0].queue.dataQueue rcvdPk:count 6453
attr interpolationmode none
attr title "received packets, count"
scalar BusLAN.host[9].eth[0].queue.dataQueue rcvdPk:sum(packetBytes) 4786684
attr interpolationmode none
attr title "received packets, sum(packetBytes)"
scalar BusLAN.host[9].eth[0].mac "simulated time" 20
scalar BusLAN.host[9].eth[0].mac full-duplex 1
scalar BusLAN.host[9].eth[0].mac "frames/sec sent" 430.3
scalar BusLAN.host[9].eth[0].mac "frames/sec rcvd" 432.2
scalar BusLAN.host[9].eth[0].mac "bits/sec sent" 2549193.2
scalar BusLAN.host[9].eth[0].mac "bits/sec rcvd" 2550788.8
scalar BusLAN.host[9].eth[0].mac "rx channel idle (%)" -125.882056
scalar BusLAN.host[9].eth[0].mac "rx channel utilization (%)" 225.882056
scalar BusLAN.host[9].eth[0].mac rxPkFromHL:count 6452
attr interpolationmode none
attr source rxPkFromHL
attr title "packet bytes from higher layer, count"
scalar BusLAN.host[9].eth[0].mac rxPkFromHL:sum(packetBytes) 4786037
attr interpolationmode none
attr source rxPkFromHL
attr title "packet bytes from higher layer, sum(packetBytes)"
scalar BusLAN.host[9].eth[0].mac rxPausePkUnits:count 0
attr interpolationmode none
attr title "pause units received, count"
scalar BusLAN.host[9].eth[0].mac rxPausePkUnits:sum 0
attr interpolationmode none
attr title "pause units received, sum"
scalar BusLAN.host[9].eth[0].mac txPausePkUnits:count 0
attr interpolationmode none
attr title "pause units sent, count"
scalar BusLAN.host[9].eth[0].mac txPausePkUnits:sum 0
attr interpolationmode none
attr title "pause units sent, sum"
scalar BusLAN.host[9].eth[0].mac txPk:count 6451
attr interpolationmode none
attr source txPk
attr title "packets transmitted, count"
scalar BusLAN.host[9].eth[0].mac txPk:sum(packetBytes) 4784999
attr interpolationmode none
attr source txPk
attr title "packets transmitted, sum(packetBytes)"
scalar BusLAN.host[9].eth[0].mac droppedPkNotForUs:count 53709
attr interpolationmode none
attr source dropPkNotForUs
attr title "packets dropped/not for us, count"
scalar BusLAN.host[9].eth[0].mac droppedPkNotForUs:sum(packetBytes) 37627566
attr interpolationmode none
attr source dropPkNotForUs
attr title "packets dropped/not for us, sum(packetBytes)"
scalar BusLAN.host[9].eth[0].mac droppedPkBitError:count 0
attr interpolationmode none
attr source dropPkBitError
attr title "packets dropped/bit error, count"
scalar BusLAN.host[9].eth[0].mac droppedPkBitError:sum(packetBytes) 0
attr interpolationmode none
attr source dropPkBitError
attr title "packets dropped/bit error, sum(packetBytes)"
scalar BusLAN.host[9].eth[0].mac droppedPkIfaceDown:count 0
attr interpolationmode none
attr source dropPkIfaceDown
attr title "packets dropped/interface down, count"
scalar BusLAN.host[9].eth[0].mac droppedPkIfaceDown:sum(packetBytes) 0
attr interpolationmode none
attr source dropPkIfaceDown
attr title "packets dropped/interface down, sum(packetBytes)"
scalar BusLAN.host[9].eth[0].mac rxPkOk:count 6453
attr interpolationmode none
attr source rxPkOk
attr title "packets received OK, count"
scalar BusLAN.host[9].eth[0].mac rxPkOk:sum(packetBytes) 4786684
attr interpolationmode none
attr source rxPkOk
attr title "packets received OK, sum(packetBytes)"
scalar BusLAN.host[9].eth[0].mac passedUpPk:count 6453
attr interpolationmode none
attr source packetSentToUpper
attr title "packets passed to higher layer, count"
scalar BusLAN.host[9].eth[0].mac passedUpPk:sum(packetBytes) 4786684
attr interpolationmode none
attr source packetSentToUpper
attr title "packets passed to higher layer, sum(packetBytes)"
scalar BusLAN.host[9].eth[0].encap pauseSent:count 0
attr title "pause sent, count"
scalar BusLAN.host[9].eth[0].encap pauseSent:sum 0
attr title "pause sent, sum"
scalar BusLAN.host[9].eth[0].encap decapPk:count 6453
attr interpolationmode none
attr source decapPk
attr title "packets decapsulated, count"
scalar BusLAN.host[9].eth[0].encap decapPk:sum(packetBytes) 4669973
attr interpolationmode none
attr source decapPk
attr title "packets decapsulated, sum(packetBytes)"
scalar BusLAN.host[9].eth[0].encap encapPk:count 6453
attr interpolationmode none
attr source encapPk
attr title "packets encapsulated, count"
scalar BusLAN.host[9].eth[0].encap encapPk:sum(packetBytes) 4669973
attr interpolationmode none
attr source encapPk
attr title "packets encapsulated, sum(packetBytes)"
scalar BusLAN.host[9].pingApp[0] "Pings sent" 201
scalar BusLAN.host[9].pingApp[0] "ping loss rate (%)" 0
scalar BusLAN.host[9].pingApp[0] "ping out-of-order rate (%)" 0
scalar BusLAN.host[9].pingApp[0] pingRxSeq:count 151
attr interpolationmode none
attr title "ping rx seq, count"
scalar BusLAN.host[9].pingApp[0] pingTxSeq:count 151
attr interpolationmode none
attr title "ping tx seq, count"
scalar BusLAN.host[9].pingApp[0] numOutOfOrderArrivals:last nan
attr interpolationmode none
attr title "ping out-of-order arrivals, last"
scalar BusLAN.host[9].pingApp[0] numLost:last nan
attr interpolationmode none
attr title "pings lost, last"
scalar BusLAN.host[9].pingApp[0] rtt:mean 0.0031076023476241
attr interpolationmode none
attr title "ping round-trip time, mean"
attr unit s
scalar BusLAN.host[9].pingApp[1] "Pings sent" 186
scalar BusLAN.host[9].pingApp[1] "ping loss rate (%)" 0
scalar BusLAN.host[9].pingApp[1] "ping out-of-order rate (%)" 0
scalar BusLAN.host[9].pingApp[1] pingRxSeq:count 143
attr interpolationmode none
attr title "ping rx seq, count"
scalar BusLAN.host[9].pingApp[1] pingTxSeq:count 143
attr interpolationmode none
attr title "ping tx seq, count"
scalar BusLAN.host[9].pingApp[1] numOutOfOrderArrivals:last nan
attr interpolationmode none
attr title "ping out-of-order arrivals, last"
scalar BusLAN.host[9].pingApp[1] numLost:last nan
attr interpolationmode none
attr title "pings lost, last"
scalar BusLAN.host[9].pingApp[1] rtt:mean 0.0016457483596929
attr interpolationmode none
attr title "ping round-trip time, mean"
attr unit s
scalar BusLAN.host[9].pingApp[2] "Pings sent" 186
scalar BusLAN.host[9].pingApp[2] "ping loss rate (%)" 0
scalar BusLAN.host[9].pingApp[2] "ping out-of-order rate (%)" 0
scalar BusLAN.host[9].pingApp[2] pingRxSeq:count 135
attr interpolationmode none
attr title "ping rx seq, count"
scalar BusLAN.host[9].pingApp[2] pingTxSeq:count 135
attr interpolationmode none
attr title "ping tx seq, count"
scalar BusLAN.host[9].pingApp[2] numOutOfOrderArrivals:last nan
attr interpolationmode none
attr title "ping out-of-order arrivals, last"
scalar BusLAN.host[9].pingApp[2] numLost:last nan
attr interpolationmode none
attr title "pings lost, last"
scalar BusLAN.host[9].pingApp[2] rtt:mean 0.0018288925111066
attr interpolationmode none
attr title "ping round-trip time, mean"
attr unit s
scalar BusLAN.host[9].pingApp[3] "Pings sent" 197
scalar BusLAN.host[9].pingApp[3] "ping loss rate (%)" 0
scalar BusLAN.host[9].pingApp[3] "ping out-of-order rate (%)" 0
scalar BusLAN.host[9].pingApp[3] pingRxSeq:count 148
attr interpolationmode none
attr title "ping rx seq, count"
scalar BusLAN.host[9].pingApp[3] pingTxSeq:count 148
attr interpolationmode none
attr title "ping tx seq, count"
scalar BusLAN.host[9].pingApp[3] numOutOfOrderArrivals:last nan
attr interpolationmode none
attr title "ping out-of-order arrivals, last"
scalar BusLAN.host[9].pingApp[3] numLost:last nan
attr interpolationmode none
attr title "pings lost, last"
scalar BusLAN.host[9].pingApp[3] rtt:mean 0.0044882485443333
attr interpolationmode none
attr title "ping round-trip time, mean"
attr unit s
scalar BusLAN.host[9].pingApp[4] "Pings sent" 188
scalar BusLAN.host[9].pingApp[4] "ping loss rate (%)" 0
scalar BusLAN.host[9].pingApp[4] "ping out-of-order rate (%)" 0
scalar BusLAN.host[9].pingApp[4] pingRxSeq:count 143
attr interpolationmode none
attr title "ping rx seq, count"
scalar BusLAN.host[9].pingApp[4] pingTxSeq:count 143
attr interpolationmode none
attr title "ping tx seq, count"
scalar BusLAN.host[9].pingApp[4] numOutOfOrderArrivals:last nan
attr interpolationmode none
attr title "ping out-of-order arrivals, last"
scalar BusLAN.host[9].pingApp[4] numLost:last nan
attr interpolationmode none
attr title "pings lost, last"
scalar BusLAN.host[9].pingApp[4] rtt:mean 0.0031631254499764
attr interpolationmode none
attr title "ping round-trip time, mean"
attr unit s
scalar BusLAN.host[9].pingApp[5] "Pings sent" 187
scalar BusLAN.host[9].pingApp[5] "ping loss rate (%)" 0
scalar BusLAN.host[9].pingApp[5] "ping out-of-order rate (%)" 0
scalar BusLAN.host[9].pingApp[5] pingRxSeq:count 138
attr interpolationmode none
attr title "ping rx seq, count"
scalar BusLAN.host[9].pingApp[5] pingTxSeq:count 138
attr interpolationmode none
attr title "ping tx seq, count"
scalar BusLAN.host[9].pingApp[5] numOutOfOrderArrivals:last nan
attr interpolationmode none
attr title "ping out-of-order arrivals, last"
scalar BusLAN.host[9].pingApp[5] numLost:last nan
attr interpolationmode none
attr title "pings lost, last"
scalar BusLAN.host[9].pingApp[5] rtt:mean 0.001481067749648
attr interpolationmode none
attr title "ping round-trip time, mean"
attr unit s
scalar BusLAN.host[9].pingApp[6] "Pings sent" 197
scalar BusLAN.host[9].pingApp[6] "ping loss rate (%)" 0
scalar BusLAN.host[9].pingApp[6] "ping out-of-order rate (%)" 0
scalar BusLAN.host[9].pingApp[6] pingRxSeq:count 146
attr interpolationmode none
attr title "ping rx seq, count"
scalar BusLAN.host[9].pingApp[6] pingTxSeq:count 146
attr interpolationmode none
attr title "ping tx seq, count"
scalar BusLAN.host[9].pingApp[6] numOutOfOrderArrivals:last nan
attr interpolationmode none
attr title "ping out-of-order arrivals, last"
scalar BusLAN.host[9].pingApp[6] numLost:last nan
attr interpolationmode none
attr title "pings lost, last"
scalar BusLAN.host[9].pingApp[6] rtt:mean 0.0016102467459231
attr interpolationmode none
attr title "ping round-trip time, mean"
attr unit s
scalar BusLAN.host[9].pingApp[7] "Pings sent" 183
scalar BusLAN.host[9].pingApp[7] "ping loss rate (%)" 0
scalar BusLAN.host[9].pingApp[7] "ping out-of-order rate (%)" 0
scalar BusLAN.host[9].pingApp[7] pingRxSeq:count 140
attr interpolationmode none
attr title "ping rx seq, count"
scalar BusLAN.host[9].pingApp[7] pingTxSeq:count 140
attr interpolationmode none
attr title "ping tx seq, count"
scalar BusLAN.host[9].pingApp[7] numOutOfOrderArrivals:last nan
attr interpolationmode none
attr title "ping out-of-order arrivals, last"
scalar BusLAN.host[9].pingApp[7] numLost:last nan
attr interpolationmode none
attr title "pings lost, last"
scalar BusLAN.host[9].pingApp[7] rtt:mean 0.0014243595210488
attr interpolationmode none
attr title "ping round-trip time, mean"
attr unit s
scalar BusLAN.host[9].pingApp[8] "Pings sent" 205
scalar BusLAN.host[9].pingApp[8] "ping loss rate (%)" 0
scalar BusLAN.host[9].pingApp[8] "ping out-of-order rate (%)" 0
scalar BusLAN.host[9].pingApp[8] pingRxSeq:count 157
attr interpolationmode none
attr title "ping rx seq, count"
scalar BusLAN.host[9].pingApp[8] pingTxSeq:count 157
attr interpolationmode none
attr title "ping tx seq, count"
scalar BusLAN.host[9].pingApp[8] numOutOfOrderArrivals:last nan
attr interpolationmode none
attr title "ping out-of-order arrivals, last"
scalar BusLAN.host[9].pingApp[8] numLost:last nan
attr interpolationmode none
attr title "pings lost, last"
scalar BusLAN.host[9].pingApp[8] rtt:mean 0.0027998492105985
attr interpolationmode none
attr title "ping round-trip time, mean"
attr unit s
scalar BusLAN.host[9].pingApp[9] "Pings sent" 191
scalar BusLAN.host[9].pingApp[9] "ping loss rate (%)" 0
scalar BusLAN.host[9].pingApp[9] "ping out-of-order rate (%)" 0
scalar BusLAN.host[9].pingApp[9] pingRxSeq:count 145
attr interpolationmode none
attr title "ping rx seq, count"
scalar BusLAN.host[9].pingApp[9] pingTxSeq:count 145
attr interpolationmode none
attr title "ping tx seq, count"
scalar BusLAN.host[9].pingApp[9] numOutOfOrderArrivals:last nan
attr interpolationmode none
attr title "ping out-of-order arrivals, last"
scalar BusLAN.host[9].pingApp[9] numLost:last nan
attr interpolationmode none
attr title "pings lost, last"
scalar BusLAN.host[9].pingApp[9] rtt:mean 0.0024318816041278
attr interpolationmode none
attr title "ping round-trip time, mean"
attr unit s
scalar BusLAN.host[9].pingApp[10] "Pings sent" 203
scalar BusLAN.host[9].pingApp[10] "ping loss rate (%)" 0
scalar BusLAN.host[9].pingApp[10] "ping out-of-order rate (%)" 0
scalar BusLAN.host[9].pingApp[10] pingRxSeq:count 154
attr interpolationmode none
attr title "ping rx seq, count"
scalar BusLAN.host[9].pingApp[10] pingTxSeq:count 154
attr interpolationmode none
attr title "ping tx seq, count"
scalar BusLAN.host[9].pingApp[10] numOutOfOrderArrivals:last nan
attr interpolationmode none
attr title "ping out-of-order arrivals, last"
scalar BusLAN.host[9].pingApp[10] numLost:last nan
attr interpolationmode none
attr title "pings lost, last"
scalar BusLAN.host[9].pingApp[10] rtt:mean 0.0015828017878214
attr interpolationmode none
attr title "ping round-trip time, mean"
attr unit s
scalar BusLAN.host[9].pingApp[11] "Pings sent" 192
scalar BusLAN.host[9].pingApp[11] "ping loss rate (%)" 0
scalar BusLAN.host[9].pingApp[11] "ping out-of-order rate (%)" 0
scalar BusLAN.host[9].pingApp[11] pingRxSeq:count 144
attr interpolationmode none
attr title "ping rx seq, count"
scalar BusLAN.host[9].pingApp[11] pingTxSeq:count 144
attr interpolationmode none
attr title "ping tx seq, count"
scalar BusLAN.host[9].pingApp[11] numOutOfOrderArrivals:last nan
attr interpolationmode none
attr title "ping out-of-order arrivals, last"
scalar BusLAN.host[9].pingApp[11] numLost:last nan
attr interpolationmode none
attr title "pings lost, last"
scalar BusLAN.host[9].pingApp[11] rtt:mean 0.0034775123911473
attr interpolationmode none
attr title "ping round-trip time, mean"
attr unit s
scalar BusLAN.host[9].pingApp[12] "Pings sent" 202
scalar BusLAN.host[9].pingApp[12] "ping loss rate (%)" 0
scalar BusLAN.host[9].pingApp[12] "ping out-of-order rate (%)" 0
scalar BusLAN.host[9].pingApp[12] pingRxSeq:count 154
attr interpolationmode none
attr title "ping rx seq, count"
scalar BusLAN.host[9].pingApp[12] pingTxSeq:count 154
attr interpolationmode none
attr title "ping tx seq, count"
scalar BusLAN.host[9].pingApp[12] numOutOfOrderArrivals:last nan
attr interpolationmode none
attr title "ping out-of-order arrivals, last"
scalar BusLAN.host[9].pingApp[12] numLost:last nan
attr interpolationmode none
attr title "pings lost, last"
scalar BusLAN.host[9].pingApp[12] rtt:mean 0.0019608766909328
attr interpolationmode none
attr title "ping round-trip time, mean"
attr unit s
scalar BusLAN.host[9].pingApp[13] "Pings sent" 200
scalar BusLAN.host[9].pingApp[13] "ping loss rate (%)" 0
scalar BusLAN.host[9].pingApp[13] "ping out-of-order rate (%)" 0
scalar BusLAN.host[9].pingApp[13] pingRxSeq:count 149
attr interpolationmode none
attr title "ping rx seq, count"
scalar BusLAN.host[9].pingApp[13] pingTxSeq:count 149
attr interpolationmode none
attr title "ping tx seq, count"
scalar BusLAN.host[9].pingApp[13] numOutOfOrderArrivals:last nan
attr interpolationmode none
attr title "ping out-of-order arrivals, last"
scalar BusLAN.host[9].pingApp[13] numLost:last nan
attr interpolationmode none
attr title "pings lost, last"
scalar BusLAN.host[9].pingApp[13] rtt:mean 0.002727058809792
attr interpolationmode none
attr title "ping round-trip time, mean"
attr unit s
scalar BusLAN.host[9].pingApp[14] "Pings sent" 194
scalar BusLAN.host[9].pingApp[14] "ping loss rate (%)" 0
scalar BusLAN.host[9].pingApp[14] "ping out-of-order rate (%)" 0
scalar BusLAN.host[9].pingApp[14] pingRxSeq:count 146
attr interpolationmode none
attr title "ping rx seq, count"
scalar BusLAN.host[9].pingApp[14] pingTxSeq:count 146
attr interpolationmode none
attr title "ping tx seq, count"
scalar BusLAN.host[9].pingApp[14] numOutOfOrderArrivals:last nan
attr interpolationmode none
attr title "ping out-of-order arrivals, last"
scalar BusLAN.host[9].pingApp[14] numLost:last nan
attr interpolationmode none
attr title "pings lost, last"
scalar BusLAN.host[9].pingApp[14] rtt:mean 0.0017961096970853
attr interpolationmode none
attr title "ping round-trip time, mean"
attr unit s
scalar BusLAN.host[9].pingApp[15] "Pings sent" 189
scalar BusLAN.host[9].pingApp[15] "ping loss rate (%)" 0
scalar BusLAN.host[9].pingApp[15] "ping out-of-order rate (%)" 0
scalar BusLAN.host[9].pingApp[15] pingRxSeq:count 143
attr interpolationmode none
attr title "ping rx seq, count"
scalar BusLAN.host[9].pingApp[15] pingTxSeq:count 143
attr interpolationmode none
attr title "ping tx seq, count"
scalar BusLAN.host[9].pingApp[15] numOutOfOrderArrivals:last nan
attr interpolationmode none
attr title "ping out-of-order arrivals, last"
scalar BusLAN.host[9].pingApp[15] numLost:last nan
attr interpolationmode none
attr title "pings lost, last"
scalar BusLAN.host[9].pingApp[15] rtt:mean 0.0026050417701769
attr interpolationmode none
attr title "ping round-trip time, mean"
attr unit s
scalar BusLAN.bus "simulated time" 20
scalar BusLAN.bus "messages handled" 0
scalar BusLAN.bus messages/sec 0

