version 2
run BusLAN10-base-2-20180110-20:24:30-11912
attr configname BusLAN10-base
attr datetime 20180110-20:24:30
attr experiment BusLAN10-base
attr inifile BusLAN.ini
attr iterationvars $pa=126
attr iterationvarsf pa=126-
attr measurement $pa=126
attr network BusLAN
attr processid 11912
attr repetition 0
attr replication #0
attr resultdir results
attr runnumber 2
attr seedset 2
itervar pa 126
param *.numHosts 10
param **.datarate 10Mbps
param **.host[*].pingApp[*].sendInterval "truncnormal(50ms, 25ms)"
param **.host[*].pingApp[*].packetSize "truncnormal(1024B, 512B)"
param **.queueType "\"DropTailQueue\""
param **.frameCapacity 10
param **.mtu 1024B
param **.host[*].numPingApps 126
param **.host[*].pingApp[*].typename "\"PingApp\""
param **.host[*].pingApp[*].count 1
param **.host[*].pingApp[*].startTime "truncnormal(200ms, 100ms)"
param **.host[*].pingApp[*].destAddr "\"*\""

scalar BusLAN.host[0].networkLayer.arp sentReply:count 0
attr title "ARP replies sent, count"
scalar BusLAN.host[0].networkLayer.arp sentReq:count 0
attr title "ARP request sent, count"
scalar BusLAN.host[0].networkLayer.arp failedARPResolution:count 0
attr title "ARP failed resolutions, count"
scalar BusLAN.host[0].networkLayer.arp completedARPResolution:count 0
attr title "ARP completed resolutions, count"
scalar BusLAN.host[0].networkLayer.arp initiatedARPResolution:count 0
attr title "ARP initiated resolutions, count"
scalar BusLAN.host[0].lo0.lo droppedPkBitError:count 0
attr interpolationmode none
attr source dropPkBitError
attr title "packets dropped/bit error, count"
scalar BusLAN.host[0].lo0.lo droppedPkBitError:sum(packetBytes) 0
attr interpolationmode none
attr source dropPkBitError
attr title "packets dropped/bit error, sum(packetBytes)"
scalar BusLAN.host[0].lo0.lo rcvdPkFromHL:count 11330
attr interpolationmode none
attr source packetReceivedFromUpper
attr title "packets received from higher layer, count"
scalar BusLAN.host[0].lo0.lo rcvdPkFromHL:sum(packetBytes) 7812194
attr interpolationmode none
attr source packetReceivedFromUpper
attr title "packets received from higher layer, sum(packetBytes)"
scalar BusLAN.host[0].lo0.lo passedUpPk:count 11330
attr interpolationmode none
attr source packetSentToUpper
attr title "packets passed to higher layer, count"
scalar BusLAN.host[0].lo0.lo passedUpPk:sum(packetBytes) 7812194
attr interpolationmode none
attr source packetSentToUpper
attr title "packets passed to higher layer, sum(packetBytes)"
scalar BusLAN.host[0].eth[0].queue.pauseQueue queueLength:max nan
attr interpolationmode sample-hold
attr title "queue length, max"
scalar BusLAN.host[0].eth[0].queue.pauseQueue queueLength:timeavg nan
attr interpolationmode sample-hold
attr title "queue length, timeavg"
statistic BusLAN.host[0].eth[0].queue.pauseQueue queueingTime:histogram
field count 0
field mean nan
field stddev nan
field min nan
field max nan
field sum 0
field sqrsum 0
attr interpolationmode none
attr title "queueing time, histogram"
bin	-inf	0
bin	-0.5	0
bin	-0.46666666666667	0
bin	-0.43333333333333	0
bin	-0.4	0
bin	-0.36666666666667	0
bin	-0.33333333333333	0
bin	-0.3	0
bin	-0.26666666666667	0
bin	-0.23333333333333	0
bin	-0.2	0
bin	-0.16666666666667	0
bin	-0.13333333333333	0
bin	-0.1	0
bin	-0.066666666666667	0
bin	-0.033333333333333	0
bin	0	0
bin	0.033333333333333	0
bin	0.066666666666667	0
bin	0.1	0
bin	0.13333333333333	0
bin	0.16666666666667	0
bin	0.2	0
bin	0.23333333333333	0
bin	0.26666666666667	0
bin	0.3	0
bin	0.33333333333333	0
bin	0.36666666666667	0
bin	0.4	0
bin	0.43333333333333	0
bin	0.46666666666667	0
bin	0.5	0
scalar BusLAN.host[0].eth[0].queue.pauseQueue dropPk:count 0
attr interpolationmode none
attr source dropPkByQueue
attr title "dropped packets, count"
scalar BusLAN.host[0].eth[0].queue.pauseQueue dropPk:sum(packetBytes) 0
attr interpolationmode none
attr source dropPkByQueue
attr title "dropped packets, sum(packetBytes)"
scalar BusLAN.host[0].eth[0].queue.pauseQueue rcvdPk:count 0
attr interpolationmode none
attr title "received packets, count"
scalar BusLAN.host[0].eth[0].queue.pauseQueue rcvdPk:sum(packetBytes) 0
attr interpolationmode none
attr title "received packets, sum(packetBytes)"
scalar BusLAN.host[0].eth[0].queue.dataQueue queueLength:max 10
attr interpolationmode sample-hold
attr title "queue length, max"
scalar BusLAN.host[0].eth[0].queue.dataQueue queueLength:timeavg 9.3681264689428
attr interpolationmode sample-hold
attr title "queue length, timeavg"
statistic BusLAN.host[0].eth[0].queue.dataQueue queueingTime:histogram
field count 22824
field mean 0.0061566723811776
field stddev 0.00079253064874948
field min 0.001131360591
field max 0.008462505605
field sum 140.519890428
field sqrsum 0.87947016492116
attr interpolationmode none
attr title "queueing time, histogram"
bin	-inf	76
bin	0.0035506541085	42
bin	0.0037501247176333	62
bin	0.0039495953267667	100
bin	0.0041490659359	162
bin	0.0043485365450333	255
bin	0.0045480071541667	387
bin	0.0047474777633	527
bin	0.0049469483724333	786
bin	0.0051464189815667	1019
bin	0.0053458895907	1336
bin	0.0055453601998333	1705
bin	0.0057448308089667	1965
bin	0.0059443014181	2285
bin	0.0061437720272333	2269
bin	0.0063432426363667	2214
bin	0.0065427132455	2148
bin	0.0067421838546333	1873
bin	0.0069416544637667	1392
bin	0.0071411250729	995
bin	0.0073405956820333	656
bin	0.0075400662911667	348
bin	0.0077395369003	158
bin	0.0079390075094333	55
bin	0.0081384781185667	7
bin	0.0083379487277	2
bin	0.0085374193368333	0
bin	0.0087368899459667	0
bin	0.0089363605551	0
bin	0.0091358311642333	0
bin	0.0093353017733667	0
bin	0.0095347723825	0
scalar BusLAN.host[0].eth[0].queue.dataQueue dropPk:count 40222
attr interpolationmode none
attr source dropPkByQueue
attr title "dropped packets, count"
scalar BusLAN.host[0].eth[0].queue.dataQueue dropPk:sum(packetBytes) 26250765
attr interpolationmode none
attr source dropPkByQueue
attr title "dropped packets, sum(packetBytes)"
scalar BusLAN.host[0].eth[0].queue.dataQueue rcvdPk:count 63047
attr interpolationmode none
attr title "received packets, count"
scalar BusLAN.host[0].eth[0].queue.dataQueue rcvdPk:sum(packetBytes) 44544449
attr interpolationmode none
attr title "received packets, sum(packetBytes)"
scalar BusLAN.host[0].eth[0].mac "simulated time" 20
scalar BusLAN.host[0].eth[0].mac full-duplex 1
scalar BusLAN.host[0].eth[0].mac "frames/sec sent" 1520.65
scalar BusLAN.host[0].eth[0].mac "frames/sec rcvd" 1549.05
scalar BusLAN.host[0].eth[0].mac "bits/sec sent" 9747875.6
scalar BusLAN.host[0].eth[0].mac "bits/sec rcvd" 9994218
scalar BusLAN.host[0].eth[0].mac "rx channel idle (%)" -783.35592
scalar BusLAN.host[0].eth[0].mac "rx channel utilization (%)" 883.35592
scalar BusLAN.host[0].eth[0].mac rxPkFromHL:count 22824
attr interpolationmode none
attr source rxPkFromHL
attr title "packet bytes from higher layer, count"
scalar BusLAN.host[0].eth[0].mac rxPkFromHL:sum(packetBytes) 18293664
attr interpolationmode none
attr source rxPkFromHL
attr title "packet bytes from higher layer, sum(packetBytes)"
scalar BusLAN.host[0].eth[0].mac rxPausePkUnits:count 0
attr interpolationmode none
attr title "pause units received, count"
scalar BusLAN.host[0].eth[0].mac rxPausePkUnits:sum 0
attr interpolationmode none
attr title "pause units received, sum"
scalar BusLAN.host[0].eth[0].mac txPausePkUnits:count 0
attr interpolationmode none
attr title "pause units sent, count"
scalar BusLAN.host[0].eth[0].mac txPausePkUnits:sum 0
attr interpolationmode none
attr title "pause units sent, sum"
scalar BusLAN.host[0].eth[0].mac txPk:count 22824
attr interpolationmode none
attr source txPk
attr title "packets transmitted, count"
scalar BusLAN.host[0].eth[0].mac txPk:sum(packetBytes) 18293278
attr interpolationmode none
attr source txPk
attr title "packets transmitted, sum(packetBytes)"
scalar BusLAN.host[0].eth[0].mac droppedPkNotForUs:count 179118
attr interpolationmode none
attr source dropPkNotForUs
attr title "packets dropped/not for us, count"
scalar BusLAN.host[0].eth[0].mac droppedPkNotForUs:sum(packetBytes) 146446868
attr interpolationmode none
attr source dropPkNotForUs
attr title "packets dropped/not for us, sum(packetBytes)"
scalar BusLAN.host[0].eth[0].mac droppedPkBitError:count 0
attr interpolationmode none
attr source dropPkBitError
attr title "packets dropped/bit error, count"
scalar BusLAN.host[0].eth[0].mac droppedPkBitError:sum(packetBytes) 0
attr interpolationmode none
attr source dropPkBitError
attr title "packets dropped/bit error, sum(packetBytes)"
scalar BusLAN.host[0].eth[0].mac droppedPkIfaceDown:count 0
attr interpolationmode none
attr source dropPkIfaceDown
attr title "packets dropped/interface down, count"
scalar BusLAN.host[0].eth[0].mac droppedPkIfaceDown:sum(packetBytes) 0
attr interpolationmode none
attr source dropPkIfaceDown
attr title "packets dropped/interface down, sum(packetBytes)"
scalar BusLAN.host[0].eth[0].mac rxPkOk:count 22560
attr interpolationmode none
attr source rxPkOk
attr title "packets received OK, count"
scalar BusLAN.host[0].eth[0].mac rxPkOk:sum(packetBytes) 18268013
attr interpolationmode none
attr source rxPkOk
attr title "packets received OK, sum(packetBytes)"
scalar BusLAN.host[0].eth[0].mac passedUpPk:count 22560
attr interpolationmode none
attr source packetSentToUpper
attr title "packets passed to higher layer, count"
scalar BusLAN.host[0].eth[0].mac passedUpPk:sum(packetBytes) 18268013
attr interpolationmode none
attr source packetSentToUpper
attr title "packets passed to higher layer, sum(packetBytes)"
scalar BusLAN.host[0].eth[0].encap pauseSent:count 0
attr title "pause sent, count"
scalar BusLAN.host[0].eth[0].encap pauseSent:sum 0
attr title "pause sent, sum"
scalar BusLAN.host[0].eth[0].encap decapPk:count 22560
attr interpolationmode none
attr source decapPk
attr title "packets decapsulated, count"
scalar BusLAN.host[0].eth[0].encap decapPk:sum(packetBytes) 17860637
attr interpolationmode none
attr source decapPk
attr title "packets decapsulated, sum(packetBytes)"
scalar BusLAN.host[0].eth[0].encap encapPk:count 63047
attr interpolationmode none
attr source encapPk
attr title "packets encapsulated, count"
scalar BusLAN.host[0].eth[0].encap encapPk:sum(packetBytes) 43394646
attr interpolationmode none
attr source encapPk
attr title "packets encapsulated, sum(packetBytes)"
scalar BusLAN.host[0].pingApp[0] "Pings sent" 390
scalar BusLAN.host[0].pingApp[0] "ping loss rate (%)" 88.974358974359
scalar BusLAN.host[0].pingApp[0] "ping out-of-order rate (%)" 0
scalar BusLAN.host[0].pingApp[0] pingRxSeq:count 30
attr interpolationmode none
attr title "ping rx seq, count"
scalar BusLAN.host[0].pingApp[0] pingTxSeq:count 298
attr interpolationmode none
attr title "ping tx seq, count"
scalar BusLAN.host[0].pingApp[0] numOutOfOrderArrivals:last nan
attr interpolationmode none
attr title "ping out-of-order arrivals, last"
scalar BusLAN.host[0].pingApp[0] numLost:last 342
attr interpolationmode none
attr title "pings lost, last"
scalar BusLAN.host[0].pingApp[0] rtt:mean 0.0127125487775
attr interpolationmode none
attr title "ping round-trip time, mean"
attr unit s
scalar BusLAN.host[0].pingApp[1] "Pings sent" 384
scalar BusLAN.host[0].pingApp[1] "ping loss rate (%)" 87.760416666667
scalar BusLAN.host[0].pingApp[1] "ping out-of-order rate (%)" 0
scalar BusLAN.host[0].pingApp[1] pingRxSeq:count 30
attr interpolationmode none
attr title "ping rx seq, count"
scalar BusLAN.host[0].pingApp[1] pingTxSeq:count 286
attr interpolationmode none
attr title "ping tx seq, count"
scalar BusLAN.host[0].pingApp[1] numOutOfOrderArrivals:last nan
attr interpolationmode none
attr title "ping out-of-order arrivals, last"
scalar BusLAN.host[0].pingApp[1] numLost:last 324
attr interpolationmode none
attr title "pings lost, last"
scalar BusLAN.host[0].pingApp[1] rtt:mean 0.0134045746165
attr interpolationmode none
attr title "ping round-trip time, mean"
attr unit s
scalar BusLAN.host[0].pingApp[2] "Pings sent" 387
scalar BusLAN.host[0].pingApp[2] "ping loss rate (%)" 67.958656330749
scalar BusLAN.host[0].pingApp[2] "ping out-of-order rate (%)" 0.25839793281654
scalar BusLAN.host[0].pingApp[2] pingRxSeq:count 84
attr interpolationmode none
attr title "ping rx seq, count"
scalar BusLAN.host[0].pingApp[2] pingTxSeq:count 283
attr interpolationmode none
attr title "ping tx seq, count"
scalar BusLAN.host[0].pingApp[2] numOutOfOrderArrivals:last 1
attr interpolationmode none
attr title "ping out-of-order arrivals, last"
scalar BusLAN.host[0].pingApp[2] numLost:last 263
attr interpolationmode none
attr title "pings lost, last"
scalar BusLAN.host[0].pingApp[2] rtt:mean 0.013547889931034
attr interpolationmode none
attr title "ping round-trip time, mean"
attr unit s
scalar BusLAN.host[0].pingApp[3] "Pings sent" 372
scalar BusLAN.host[0].pingApp[3] "ping loss rate (%)" 66.397849462366
scalar BusLAN.host[0].pingApp[3] "ping out-of-order rate (%)" 0
scalar BusLAN.host[0].pingApp[3] pingRxSeq:count 96
attr interpolationmode none
attr title "ping rx seq, count"
scalar BusLAN.host[0].pingApp[3] pingTxSeq:count 285
attr interpolationmode none
attr title "ping tx seq, count"
scalar BusLAN.host[0].pingApp[3] numOutOfOrderArrivals:last nan
attr interpolationmode none
attr title "ping out-of-order arrivals, last"
scalar BusLAN.host[0].pingApp[3] numLost:last 246
attr interpolationmode none
attr title "pings lost, last"
scalar BusLAN.host[0].pingApp[3] rtt:mean 0.013976054566896
attr interpolationmode none
attr title "ping round-trip time, mean"
attr unit s
scalar BusLAN.host[0].pingApp[4] "Pings sent" 390
scalar BusLAN.host[0].pingApp[4] "ping loss rate (%)" 69.230769230769
scalar BusLAN.host[0].pingApp[4] "ping out-of-order rate (%)" 0
scalar BusLAN.host[0].pingApp[4] pingRxSeq:count 91
attr interpolationmode none
attr title "ping rx seq, count"
scalar BusLAN.host[0].pingApp[4] pingTxSeq:count 293
attr interpolationmode none
attr title "ping tx seq, count"
scalar BusLAN.host[0].pingApp[4] numOutOfOrderArrivals:last nan
attr interpolationmode none
attr title "ping out-of-order arrivals, last"
scalar BusLAN.host[0].pingApp[4] numLost:last 269
attr interpolationmode none
attr title "pings lost, last"
scalar BusLAN.host[0].pingApp[4] rtt:mean 0.013417995572364
attr interpolationmode none
attr title "ping round-trip time, mean"
attr unit s
scalar BusLAN.host[0].pingApp[5] "Pings sent" 401
scalar BusLAN.host[0].pingApp[5] "ping loss rate (%)" 88.778054862843
scalar BusLAN.host[0].pingApp[5] "ping out-of-order rate (%)" 0
scalar BusLAN.host[0].pingApp[5] pingRxSeq:count 37
attr interpolationmode none
attr title "ping rx seq, count"
scalar BusLAN.host[0].pingApp[5] pingTxSeq:count 306
attr interpolationmode none
attr title "ping tx seq, count"
scalar BusLAN.host[0].pingApp[5] numOutOfOrderArrivals:last nan
attr interpolationmode none
attr title "ping out-of-order arrivals, last"
scalar BusLAN.host[0].pingApp[5] numLost:last 343
attr interpolationmode none
attr title "pings lost, last"
scalar BusLAN.host[0].pingApp[5] rtt:mean 0.0141296165902
attr interpolationmode none
attr title "ping round-trip time, mean"
attr unit s
scalar BusLAN.host[0].pingApp[6] "Pings sent" 383
scalar BusLAN.host[0].pingApp[6] "ping loss rate (%)" 68.407310704961
scalar BusLAN.host[0].pingApp[6] "ping out-of-order rate (%)" 0.52219321148825
scalar BusLAN.host[0].pingApp[6] pingRxSeq:count 94
attr interpolationmode none
attr title "ping rx seq, count"
scalar BusLAN.host[0].pingApp[6] pingTxSeq:count 298
attr interpolationmode none
attr title "ping tx seq, count"
scalar BusLAN.host[0].pingApp[6] numOutOfOrderArrivals:last 2
attr interpolationmode none
attr title "ping out-of-order arrivals, last"
scalar BusLAN.host[0].pingApp[6] numLost:last 262
attr interpolationmode none
attr title "pings lost, last"
scalar BusLAN.host[0].pingApp[6] rtt:mean 0.013786547282984
attr interpolationmode none
attr title "ping round-trip time, mean"
attr unit s
scalar BusLAN.host[0].pingApp[7] "Pings sent" 405
scalar BusLAN.host[0].pingApp[7] "ping loss rate (%)" 71.604938271605
scalar BusLAN.host[0].pingApp[7] "ping out-of-order rate (%)" 0.24691358024691
scalar BusLAN.host[0].pingApp[7] pingRxSeq:count 90
attr interpolationmode none
attr title "ping rx seq, count"
scalar BusLAN.host[0].pingApp[7] pingTxSeq:count 301
attr interpolationmode none
attr title "ping tx seq, count"
scalar BusLAN.host[0].pingApp[7] numOutOfOrderArrivals:last 1
attr interpolationmode none
attr title "ping out-of-order arrivals, last"
scalar BusLAN.host[0].pingApp[7] numLost:last 285
attr interpolationmode none
attr title "pings lost, last"
scalar BusLAN.host[0].pingApp[7] rtt:mean 0.014095415506356
attr interpolationmode none
attr title "ping round-trip time, mean"
attr unit s
scalar BusLAN.host[0].pingApp[8] "Pings sent" 393
scalar BusLAN.host[0].pingApp[8] "ping loss rate (%)" 76.590330788804
scalar BusLAN.host[0].pingApp[8] "ping out-of-order rate (%)" 0
scalar BusLAN.host[0].pingApp[8] pingRxSeq:count 73
attr interpolationmode none
attr title "ping rx seq, count"
scalar BusLAN.host[0].pingApp[8] pingTxSeq:count 299
attr interpolationmode none
attr title "ping tx seq, count"
scalar BusLAN.host[0].pingApp[8] numOutOfOrderArrivals:last nan
attr interpolationmode none
attr title "ping out-of-order arrivals, last"
scalar BusLAN.host[0].pingApp[8] numLost:last 298
attr interpolationmode none
attr title "pings lost, last"
scalar BusLAN.host[0].pingApp[8] rtt:mean 0.012706718640196
attr interpolationmode none
attr title "ping round-trip time, mean"
attr unit s
scalar BusLAN.host[0].pingApp[9] "Pings sent" 389
scalar BusLAN.host[0].pingApp[9] "ping loss rate (%)" 90.231362467866
scalar BusLAN.host[0].pingApp[9] "ping out-of-order rate (%)" 0
scalar BusLAN.host[0].pingApp[9] pingRxSeq:count 31
attr interpolationmode none
attr title "ping rx seq, count"
scalar BusLAN.host[0].pingApp[9] pingTxSeq:count 300
attr interpolationmode none
attr title "ping tx seq, count"
scalar BusLAN.host[0].pingApp[9] numOutOfOrderArrivals:last nan
attr interpolationmode none
attr title "ping out-of-order arrivals, last"
scalar BusLAN.host[0].pingApp[9] numLost:last 343
attr interpolationmode none
attr title "pings lost, last"
scalar BusLAN.host[0].pingApp[9] rtt:mean 0.01293255695775
attr interpolationmode none
attr title "ping round-trip time, mean"
attr unit s
scalar BusLAN.host[0].pingApp[10] "Pings sent" 390
scalar BusLAN.host[0].pingApp[10] "ping loss rate (%)" 70.25641025641
scalar BusLAN.host[0].pingApp[10] "ping out-of-order rate (%)" 0
scalar BusLAN.host[0].pingApp[10] pingRxSeq:count 89
attr interpolationmode none
attr title "ping rx seq, count"
scalar BusLAN.host[0].pingApp[10] pingTxSeq:count 295
attr interpolationmode none
attr title "ping tx seq, count"
scalar BusLAN.host[0].pingApp[10] numOutOfOrderArrivals:last nan
attr interpolationmode none
attr title "ping out-of-order arrivals, last"
scalar BusLAN.host[0].pingApp[10] numLost:last 272
attr interpolationmode none
attr title "pings lost, last"
scalar BusLAN.host[0].pingApp[10] rtt:mean 0.014001009329621
attr interpolationmode none
attr title "ping round-trip time, mean"
attr unit s
scalar BusLAN.host[0].pingApp[11] "Pings sent" 379
scalar BusLAN.host[0].pingApp[11] "ping loss rate (%)" 88.918205804749
scalar BusLAN.host[0].pingApp[11] "ping out-of-order rate (%)" 0
scalar BusLAN.host[0].pingApp[11] pingRxSeq:count 32
attr interpolationmode none
attr title "ping rx seq, count"
scalar BusLAN.host[0].pingApp[11] pingTxSeq:count 287
attr interpolationmode none
attr title "ping tx seq, count"
scalar BusLAN.host[0].pingApp[11] numOutOfOrderArrivals:last nan
attr interpolationmode none
attr title "ping out-of-order arrivals, last"
scalar BusLAN.host[0].pingApp[11] numLost:last 336
attr interpolationmode none
attr title "pings lost, last"
scalar BusLAN.host[0].pingApp[11] rtt:mean 0.013287276598143
attr interpolationmode none
attr title "ping round-trip time, mean"
attr unit s
scalar BusLAN.host[0].pingApp[12] "Pings sent" 372
scalar BusLAN.host[0].pingApp[12] "ping loss rate (%)" 70.161290322581
scalar BusLAN.host[0].pingApp[12] "ping out-of-order rate (%)" 0
scalar BusLAN.host[0].pingApp[12] pingRxSeq:count 80
attr interpolationmode none
attr title "ping rx seq, count"
scalar BusLAN.host[0].pingApp[12] pingTxSeq:count 276
attr interpolationmode none
attr title "ping tx seq, count"
scalar BusLAN.host[0].pingApp[12] numOutOfOrderArrivals:last nan
attr interpolationmode none
attr title "ping out-of-order arrivals, last"
scalar BusLAN.host[0].pingApp[12] numLost:last 258
attr interpolationmode none
attr title "pings lost, last"
scalar BusLAN.host[0].pingApp[12] rtt:mean 0.013651215729327
attr interpolationmode none
attr title "ping round-trip time, mean"
attr unit s
scalar BusLAN.host[0].pingApp[13] "Pings sent" 387
scalar BusLAN.host[0].pingApp[13] "ping loss rate (%)" 89.147286821705
scalar BusLAN.host[0].pingApp[13] "ping out-of-order rate (%)" 0
scalar BusLAN.host[0].pingApp[13] pingRxSeq:count 30
attr interpolationmode none
attr title "ping rx seq, count"
scalar BusLAN.host[0].pingApp[13] pingTxSeq:count 294
attr interpolationmode none
attr title "ping tx seq, count"
scalar BusLAN.host[0].pingApp[13] numOutOfOrderArrivals:last nan
attr interpolationmode none
attr title "ping out-of-order arrivals, last"
scalar BusLAN.host[0].pingApp[13] numLost:last 344
attr interpolationmode none
attr title "pings lost, last"
scalar BusLAN.host[0].pingApp[13] rtt:mean 0.013182486272
attr interpolationmode none
attr title "ping round-trip time, mean"
attr unit s
scalar BusLAN.host[0].pingApp[14] "Pings sent" 378
scalar BusLAN.host[0].pingApp[14] "ping loss rate (%)" 71.957671957672
scalar BusLAN.host[0].pingApp[14] "ping out-of-order rate (%)" 0
scalar BusLAN.host[0].pingApp[14] pingRxSeq:count 81
attr interpolationmode none
attr title "ping rx seq, count"
scalar BusLAN.host[0].pingApp[14] pingTxSeq:count 284
attr interpolationmode none
attr title "ping tx seq, count"
scalar BusLAN.host[0].pingApp[14] numOutOfOrderArrivals:last nan
attr interpolationmode none
attr title "ping out-of-order arrivals, last"
scalar BusLAN.host[0].pingApp[14] numLost:last 270
attr interpolationmode none
attr title "pings lost, last"
scalar BusLAN.host[0].pingApp[14] rtt:mean 0.013611374742208
attr interpolationmode none
attr title "ping round-trip time, mean"
attr unit s
scalar BusLAN.host[0].pingApp[15] "Pings sent" 387
scalar BusLAN.host[0].pingApp[15] "ping loss rate (%)" 68.733850129199
scalar BusLAN.host[0].pingApp[15] "ping out-of-order rate (%)" 0.25839793281654
scalar BusLAN.host[0].pingApp[15] pingRxSeq:count 89
attr interpolationmode none
attr title "ping rx seq, count"
scalar BusLAN.host[0].pingApp[15] pingTxSeq:count 295
attr interpolationmode none
attr title "ping tx seq, count"
scalar BusLAN.host[0].pingApp[15] numOutOfOrderArrivals:last 1
attr interpolationmode none
attr title "ping out-of-order arrivals, last"
scalar BusLAN.host[0].pingApp[15] numLost:last 263
attr interpolationmode none
attr title "pings lost, last"
scalar BusLAN.host[0].pingApp[15] rtt:mean 0.013314973185349
attr interpolationmode none
attr title "ping round-trip time, mean"
attr unit s
scalar BusLAN.host[0].pingApp[16] "Pings sent" 387
scalar BusLAN.host[0].pingApp[16] "ping loss rate (%)" 72.609819121447
scalar BusLAN.host[0].pingApp[16] "ping out-of-order rate (%)" 0
scalar BusLAN.host[0].pingApp[16] pingRxSeq:count 75
attr interpolationmode none
attr title "ping rx seq, count"
scalar BusLAN.host[0].pingApp[16] pingTxSeq:count 291
attr interpolationmode none
attr title "ping tx seq, count"
scalar BusLAN.host[0].pingApp[16] numOutOfOrderArrivals:last nan
attr interpolationmode none
attr title "ping out-of-order arrivals, last"
scalar BusLAN.host[0].pingApp[16] numLost:last 281
attr interpolationmode none
attr title "pings lost, last"
scalar BusLAN.host[0].pingApp[16] rtt:mean 0.01360320179739
attr interpolationmode none
attr title "ping round-trip time, mean"
attr unit s
scalar BusLAN.host[0].pingApp[17] "Pings sent" 401
scalar BusLAN.host[0].pingApp[17] "ping loss rate (%)" 70.074812967581
scalar BusLAN.host[0].pingApp[17] "ping out-of-order rate (%)" 0.24937655860349
scalar BusLAN.host[0].pingApp[17] pingRxSeq:count 93
attr interpolationmode none
attr title "ping rx seq, count"
scalar BusLAN.host[0].pingApp[17] pingTxSeq:count 295
attr interpolationmode none
attr title "ping tx seq, count"
scalar BusLAN.host[0].pingApp[17] numOutOfOrderArrivals:last 1
attr interpolationmode none
attr title "ping out-of-order arrivals, last"
scalar BusLAN.host[0].pingApp[17] numLost:last 277
attr interpolationmode none
attr title "pings lost, last"
scalar BusLAN.host[0].pingApp[17] rtt:mean 0.013631139977946
attr interpolationmode none
attr title "ping round-trip time, mean"
attr unit s
scalar BusLAN.host[0].pingApp[18] "Pings sent" 383
scalar BusLAN.host[0].pingApp[18] "ping loss rate (%)" 91.1227154047
scalar BusLAN.host[0].pingApp[18] "ping out-of-order rate (%)" 0
scalar BusLAN.host[0].pingApp[18] pingRxSeq:count 30
attr interpolationmode none
attr title "ping rx seq, count"
scalar BusLAN.host[0].pingApp[18] pingTxSeq:count 293
attr interpolationmode none
attr title "ping tx seq, count"
scalar BusLAN.host[0].pingApp[18] numOutOfOrderArrivals:last nan
attr interpolationmode none
attr title "ping out-of-order arrivals, last"
scalar BusLAN.host[0].pingApp[18] numLost:last 349
attr interpolationmode none
attr title "pings lost, last"
scalar BusLAN.host[0].pingApp[18] rtt:mean 0.01431583207225
attr interpolationmode none
attr title "ping round-trip time, mean"
attr unit s
scalar BusLAN.host[0].pingApp[19] "Pings sent" 391
scalar BusLAN.host[0].pingApp[19] "ping loss rate (%)" 88.49104859335
scalar BusLAN.host[0].pingApp[19] "ping out-of-order rate (%)" 0
scalar BusLAN.host[0].pingApp[19] pingRxSeq:count 34
attr interpolationmode none
attr title "ping rx seq, count"
scalar BusLAN.host[0].pingApp[19] pingTxSeq:count 303
attr interpolationmode none
attr title "ping tx seq, count"
scalar BusLAN.host[0].pingApp[19] numOutOfOrderArrivals:last nan
attr interpolationmode none
attr title "ping out-of-order arrivals, last"
scalar BusLAN.host[0].pingApp[19] numLost:last 346
attr interpolationmode none
attr title "pings lost, last"
scalar BusLAN.host[0].pingApp[19] rtt:mean 0.0135358564455
attr interpolationmode none
attr title "ping round-trip time, mean"
attr unit s
scalar BusLAN.host[0].pingApp[20] "Pings sent" 384
scalar BusLAN.host[0].pingApp[20] "ping loss rate (%)" 88.020833333333
scalar BusLAN.host[0].pingApp[20] "ping out-of-order rate (%)" 0
scalar BusLAN.host[0].pingApp[20] pingRxSeq:count 36
attr interpolationmode none
attr title "ping rx seq, count"
scalar BusLAN.host[0].pingApp[20] pingTxSeq:count 292
attr interpolationmode none
attr title "ping tx seq, count"
scalar BusLAN.host[0].pingApp[20] numOutOfOrderArrivals:last nan
attr interpolationmode none
attr title "ping out-of-order arrivals, last"
scalar BusLAN.host[0].pingApp[20] numLost:last 337
attr interpolationmode none
attr title "pings lost, last"
scalar BusLAN.host[0].pingApp[20] rtt:mean 0.012573494665667
attr interpolationmode none
attr title "ping round-trip time, mean"
attr unit s
scalar BusLAN.host[0].pingApp[21] "Pings sent" 379
scalar BusLAN.host[0].pingApp[21] "ping loss rate (%)" 67.810026385224
scalar BusLAN.host[0].pingApp[21] "ping out-of-order rate (%)" 0.26385224274406
scalar BusLAN.host[0].pingApp[21] pingRxSeq:count 96
attr interpolationmode none
attr title "ping rx seq, count"
scalar BusLAN.host[0].pingApp[21] pingTxSeq:count 295
attr interpolationmode none
attr title "ping tx seq, count"
scalar BusLAN.host[0].pingApp[21] numOutOfOrderArrivals:last 1
attr interpolationmode none
attr title "ping out-of-order arrivals, last"
scalar BusLAN.host[0].pingApp[21] numLost:last 254
attr interpolationmode none
attr title "pings lost, last"
scalar BusLAN.host[0].pingApp[21] rtt:mean 0.013804052839441
attr interpolationmode none
attr title "ping round-trip time, mean"
attr unit s
scalar BusLAN.host[0].pingApp[22] "Pings sent" 380
scalar BusLAN.host[0].pingApp[22] "ping loss rate (%)" 85
scalar BusLAN.host[0].pingApp[22] "ping out-of-order rate (%)" 0
scalar BusLAN.host[0].pingApp[22] pingRxSeq:count 36
attr interpolationmode none
attr title "ping rx seq, count"
scalar BusLAN.host[0].pingApp[22] pingTxSeq:count 282
attr interpolationmode none
attr title "ping tx seq, count"
scalar BusLAN.host[0].pingApp[22] numOutOfOrderArrivals:last nan
attr interpolationmode none
attr title "ping out-of-order arrivals, last"
scalar BusLAN.host[0].pingApp[22] numLost:last 307
attr interpolationmode none
attr title "pings lost, last"
scalar BusLAN.host[0].pingApp[22] rtt:mean 0.0135652443025
attr interpolationmode none
attr title "ping round-trip time, mean"
attr unit s
scalar BusLAN.host[0].pingApp[23] "Pings sent" 382
scalar BusLAN.host[0].pingApp[23] "ping loss rate (%)" 69.109947643979
scalar BusLAN.host[0].pingApp[23] "ping out-of-order rate (%)" 0.26178010471204
scalar BusLAN.host[0].pingApp[23] pingRxSeq:count 91
attr interpolationmode none
attr title "ping rx seq, count"
scalar BusLAN.host[0].pingApp[23] pingTxSeq:count 290
attr interpolationmode none
attr title "ping tx seq, count"
scalar BusLAN.host[0].pingApp[23] numOutOfOrderArrivals:last 1
attr interpolationmode none
attr title "ping out-of-order arrivals, last"
scalar BusLAN.host[0].pingApp[23] numLost:last 260
attr interpolationmode none
attr title "pings lost, last"
scalar BusLAN.host[0].pingApp[23] rtt:mean 0.012712424382426
attr interpolationmode none
attr title "ping round-trip time, mean"
attr unit s
scalar BusLAN.host[0].pingApp[24] "Pings sent" 378
scalar BusLAN.host[0].pingApp[24] "ping loss rate (%)" 87.830687830688
scalar BusLAN.host[0].pingApp[24] "ping out-of-order rate (%)" 0
scalar BusLAN.host[0].pingApp[24] pingRxSeq:count 42
attr interpolationmode none
attr title "ping rx seq, count"
scalar BusLAN.host[0].pingApp[24] pingTxSeq:count 285
attr interpolationmode none
attr title "ping tx seq, count"
scalar BusLAN.host[0].pingApp[24] numOutOfOrderArrivals:last nan
attr interpolationmode none
attr title "ping out-of-order arrivals, last"
scalar BusLAN.host[0].pingApp[24] numLost:last 319
attr interpolationmode none
attr title "pings lost, last"
scalar BusLAN.host[0].pingApp[24] rtt:mean 0.01306577198175
attr interpolationmode none
attr title "ping round-trip time, mean"
attr unit s
scalar BusLAN.host[0].pingApp[25] "Pings sent" 395
scalar BusLAN.host[0].pingApp[25] "ping loss rate (%)" 86.582278481013
scalar BusLAN.host[0].pingApp[25] "ping out-of-order rate (%)" 0
scalar BusLAN.host[0].pingApp[25] pingRxSeq:count 43
attr interpolationmode none
attr title "ping rx seq, count"
scalar BusLAN.host[0].pingApp[25] pingTxSeq:count 305
attr interpolationmode none
attr title "ping tx seq, count"
scalar BusLAN.host[0].pingApp[25] numOutOfOrderArrivals:last nan
attr interpolationmode none
attr title "ping out-of-order arrivals, last"
scalar BusLAN.host[0].pingApp[25] numLost:last 333
attr interpolationmode none
attr title "pings lost, last"
scalar BusLAN.host[0].pingApp[25] rtt:mean 0.013017597145
attr interpolationmode none
attr title "ping round-trip time, mean"
attr unit s
scalar BusLAN.host[0].pingApp[26] "Pings sent" 393
scalar BusLAN.host[0].pingApp[26] "ping loss rate (%)" 68.193384223919
scalar BusLAN.host[0].pingApp[26] "ping out-of-order rate (%)" 0
scalar BusLAN.host[0].pingApp[26] pingRxSeq:count 92
attr interpolationmode none
attr title "ping rx seq, count"
scalar BusLAN.host[0].pingApp[26] pingTxSeq:count 299
attr interpolationmode none
attr title "ping tx seq, count"
scalar BusLAN.host[0].pingApp[26] numOutOfOrderArrivals:last nan
attr interpolationmode none
attr title "ping out-of-order arrivals, last"
scalar BusLAN.host[0].pingApp[26] numLost:last 261
attr interpolationmode none
attr title "pings lost, last"
scalar BusLAN.host[0].pingApp[26] rtt:mean 0.012378586889273
attr interpolationmode none
attr title "ping round-trip time, mean"
attr unit s
scalar BusLAN.host[0].pingApp[27] "Pings sent" 381
scalar BusLAN.host[0].pingApp[27] "ping loss rate (%)" 87.139107611549
scalar BusLAN.host[0].pingApp[27] "ping out-of-order rate (%)" 0
scalar BusLAN.host[0].pingApp[27] pingRxSeq:count 38
attr interpolationmode none
attr title "ping rx seq, count"
scalar BusLAN.host[0].pingApp[27] pingTxSeq:count 286
attr interpolationmode none
attr title "ping tx seq, count"
scalar BusLAN.host[0].pingApp[27] numOutOfOrderArrivals:last nan
attr interpolationmode none
attr title "ping out-of-order arrivals, last"
scalar BusLAN.host[0].pingApp[27] numLost:last 330
attr interpolationmode none
attr title "pings lost, last"
scalar BusLAN.host[0].pingApp[27] rtt:mean 0.0128068601972
attr interpolationmode none
attr title "ping round-trip time, mean"
attr unit s
scalar BusLAN.host[0].pingApp[28] "Pings sent" 383
scalar BusLAN.host[0].pingApp[28] "ping loss rate (%)" 87.728459530026
scalar BusLAN.host[0].pingApp[28] "ping out-of-order rate (%)" 0
scalar BusLAN.host[0].pingApp[28] pingRxSeq:count 30
attr interpolationmode none
attr title "ping rx seq, count"
scalar BusLAN.host[0].pingApp[28] pingTxSeq:count 290
attr interpolationmode none
attr title "ping tx seq, count"
scalar BusLAN.host[0].pingApp[28] numOutOfOrderArrivals:last nan
attr interpolationmode none
attr title "ping out-of-order arrivals, last"
scalar BusLAN.host[0].pingApp[28] numLost:last 333
attr interpolationmode none
attr title "pings lost, last"
scalar BusLAN.host[0].pingApp[28] rtt:mean 0.01307039895975
attr interpolationmode none
attr title "ping round-trip time, mean"
attr unit s
scalar BusLAN.host[0].pingApp[29] "Pings sent" 376
scalar BusLAN.host[0].pingApp[29] "ping loss rate (%)" 67.287234042553
scalar BusLAN.host[0].pingApp[29] "ping out-of-order rate (%)" 0
scalar BusLAN.host[0].pingApp[29] pingRxSeq:count 100
attr interpolationmode none
attr title "ping rx seq, count"
scalar BusLAN.host[0].pingApp[29] pingTxSeq:count 277
attr interpolationmode none
attr title "ping tx seq, count"
scalar BusLAN.host[0].pingApp[29] numOutOfOrderArrivals:last nan
attr interpolationmode none
attr title "ping out-of-order arrivals, last"
scalar BusLAN.host[0].pingApp[29] numLost:last 253
attr interpolationmode none
attr title "pings lost, last"
scalar BusLAN.host[0].pingApp[29] rtt:mean 0.013494255884149
attr interpolationmode none
attr title "ping round-trip time, mean"
attr unit s
scalar BusLAN.host[0].pingApp[30] "Pings sent" 387
scalar BusLAN.host[0].pingApp[30] "ping loss rate (%)" 75.710594315245
scalar BusLAN.host[0].pingApp[30] "ping out-of-order rate (%)" 0.51679586563307
scalar BusLAN.host[0].pingApp[30] pingRxSeq:count 69
attr interpolationmode none
attr title "ping rx seq, count"
scalar BusLAN.host[0].pingApp[30] pingTxSeq:count 288
attr interpolationmode none
attr title "ping tx seq, count"
scalar BusLAN.host[0].pingApp[30] numOutOfOrderArrivals:last 2
attr interpolationmode none
attr title "ping out-of-order arrivals, last"
scalar BusLAN.host[0].pingApp[30] numLost:last 286
attr interpolationmode none
attr title "pings lost, last"
scalar BusLAN.host[0].pingApp[30] rtt:mean 0.01281341999614
attr interpolationmode none
attr title "ping round-trip time, mean"
attr unit s
scalar BusLAN.host[0].pingApp[31] "Pings sent" 377
scalar BusLAN.host[0].pingApp[31] "ping loss rate (%)" 68.965517241379
scalar BusLAN.host[0].pingApp[31] "ping out-of-order rate (%)" 0
scalar BusLAN.host[0].pingApp[31] pingRxSeq:count 87
attr interpolationmode none
attr title "ping rx seq, count"
scalar BusLAN.host[0].pingApp[31] pingTxSeq:count 282
attr interpolationmode none
attr title "ping tx seq, count"
scalar BusLAN.host[0].pingApp[31] numOutOfOrderArrivals:last nan
attr interpolationmode none
attr title "ping out-of-order arrivals, last"
scalar BusLAN.host[0].pingApp[31] numLost:last 258
attr interpolationmode none
attr title "pings lost, last"
scalar BusLAN.host[0].pingApp[31] rtt:mean 0.013485895549836
attr interpolationmode none
attr title "ping round-trip time, mean"
attr unit s
scalar BusLAN.host[0].pingApp[32] "Pings sent" 378
scalar BusLAN.host[0].pingApp[32] "ping loss rate (%)" 88.624338624339
scalar BusLAN.host[0].pingApp[32] "ping out-of-order rate (%)" 0
scalar BusLAN.host[0].pingApp[32] pingRxSeq:count 30
attr interpolationmode none
attr title "ping rx seq, count"
scalar BusLAN.host[0].pingApp[32] pingTxSeq:count 290
attr interpolationmode none
attr title "ping tx seq, count"
scalar BusLAN.host[0].pingApp[32] numOutOfOrderArrivals:last nan
attr interpolationmode none
attr title "ping out-of-order arrivals, last"
scalar BusLAN.host[0].pingApp[32] numLost:last 326
attr interpolationmode none
attr title "pings lost, last"
scalar BusLAN.host[0].pingApp[32] rtt:mean 0.01325094551875
attr interpolationmode none
attr title "ping round-trip time, mean"
attr unit s
scalar BusLAN.host[0].pingApp[33] "Pings sent" 381
scalar BusLAN.host[0].pingApp[33] "ping loss rate (%)" 67.716535433071
scalar BusLAN.host[0].pingApp[33] "ping out-of-order rate (%)" 0
scalar BusLAN.host[0].pingApp[33] pingRxSeq:count 89
attr interpolationmode none
attr title "ping rx seq, count"
scalar BusLAN.host[0].pingApp[33] pingTxSeq:count 282
attr interpolationmode none
attr title "ping tx seq, count"
scalar BusLAN.host[0].pingApp[33] numOutOfOrderArrivals:last nan
attr interpolationmode none
attr title "ping out-of-order arrivals, last"
scalar BusLAN.host[0].pingApp[33] numLost:last 256
attr interpolationmode none
attr title "pings lost, last"
scalar BusLAN.host[0].pingApp[33] rtt:mean 0.013711290209188
attr interpolationmode none
attr title "ping round-trip time, mean"
attr unit s
scalar BusLAN.host[0].pingApp[34] "Pings sent" 391
scalar BusLAN.host[0].pingApp[34] "ping loss rate (%)" 89.002557544757
scalar BusLAN.host[0].pingApp[34] "ping out-of-order rate (%)" 0
scalar BusLAN.host[0].pingApp[34] pingRxSeq:count 32
attr interpolationmode none
attr title "ping rx seq, count"
scalar BusLAN.host[0].pingApp[34] pingTxSeq:count 294
attr interpolationmode none
attr title "ping tx seq, count"
scalar BusLAN.host[0].pingApp[34] numOutOfOrderArrivals:last nan
attr interpolationmode none
attr title "ping out-of-order arrivals, last"
scalar BusLAN.host[0].pingApp[34] numLost:last 348
attr interpolationmode none
attr title "pings lost, last"
scalar BusLAN.host[0].pingApp[34] rtt:mean 0.0133407677935
attr interpolationmode none
attr title "ping round-trip time, mean"
attr unit s
scalar BusLAN.host[0].pingApp[35] "Pings sent" 389
scalar BusLAN.host[0].pingApp[35] "ping loss rate (%)" 68.637532133676
scalar BusLAN.host[0].pingApp[35] "ping out-of-order rate (%)" 0
scalar BusLAN.host[0].pingApp[35] pingRxSeq:count 94
attr interpolationmode none
attr title "ping rx seq, count"
scalar BusLAN.host[0].pingApp[35] pingTxSeq:count 285
attr interpolationmode none
attr title "ping tx seq, count"
scalar BusLAN.host[0].pingApp[35] numOutOfOrderArrivals:last nan
attr interpolationmode none
attr title "ping out-of-order arrivals, last"
scalar BusLAN.host[0].pingApp[35] numLost:last 259
attr interpolationmode none
attr title "pings lost, last"
scalar BusLAN.host[0].pingApp[35] rtt:mean 0.013532400672772
attr interpolationmode none
attr title "ping round-trip time, mean"
attr unit s
scalar BusLAN.host[0].pingApp[36] "Pings sent" 366
scalar BusLAN.host[0].pingApp[36] "ping loss rate (%)" 89.344262295082
scalar BusLAN.host[0].pingApp[36] "ping out-of-order rate (%)" 0
scalar BusLAN.host[0].pingApp[36] pingRxSeq:count 31
attr interpolationmode none
attr title "ping rx seq, count"
scalar BusLAN.host[0].pingApp[36] pingTxSeq:count 283
attr interpolationmode none
attr title "ping tx seq, count"
scalar BusLAN.host[0].pingApp[36] numOutOfOrderArrivals:last nan
attr interpolationmode none
attr title "ping out-of-order arrivals, last"
scalar BusLAN.host[0].pingApp[36] numLost:last 323
attr interpolationmode none
attr title "pings lost, last"
scalar BusLAN.host[0].pingApp[36] rtt:mean 0.013585834049714
attr interpolationmode none
attr title "ping round-trip time, mean"
attr unit s
scalar BusLAN.host[0].pingApp[37] "Pings sent" 399
scalar BusLAN.host[0].pingApp[37] "ping loss rate (%)" 72.681704260652
scalar BusLAN.host[0].pingApp[37] "ping out-of-order rate (%)" 0
scalar BusLAN.host[0].pingApp[37] pingRxSeq:count 77
attr interpolationmode none
attr title "ping rx seq, count"
scalar BusLAN.host[0].pingApp[37] pingTxSeq:count 301
attr interpolationmode none
attr title "ping tx seq, count"
scalar BusLAN.host[0].pingApp[37] numOutOfOrderArrivals:last nan
attr interpolationmode none
attr title "ping out-of-order arrivals, last"
scalar BusLAN.host[0].pingApp[37] numLost:last 288
attr interpolationmode none
attr title "pings lost, last"
scalar BusLAN.host[0].pingApp[37] rtt:mean 0.013744913409308
attr interpolationmode none
attr title "ping round-trip time, mean"
attr unit s
scalar BusLAN.host[0].pingApp[38] "Pings sent" 398
scalar BusLAN.host[0].pingApp[38] "ping loss rate (%)" 90.70351758794
scalar BusLAN.host[0].pingApp[38] "ping out-of-order rate (%)" 0
scalar BusLAN.host[0].pingApp[38] pingRxSeq:count 26
attr interpolationmode none
attr title "ping rx seq, count"
scalar BusLAN.host[0].pingApp[38] pingTxSeq:count 300
attr interpolationmode none
attr title "ping tx seq, count"
scalar BusLAN.host[0].pingApp[38] numOutOfOrderArrivals:last nan
attr interpolationmode none
attr title "ping out-of-order arrivals, last"
scalar BusLAN.host[0].pingApp[38] numLost:last 345
attr interpolationmode none
attr title "pings lost, last"
scalar BusLAN.host[0].pingApp[38] rtt:mean 0.011805163003
attr interpolationmode none
attr title "ping round-trip time, mean"
attr unit s
scalar BusLAN.host[0].pingApp[39] "Pings sent" 381
scalar BusLAN.host[0].pingApp[39] "ping loss rate (%)" 87.139107611549
scalar BusLAN.host[0].pingApp[39] "ping out-of-order rate (%)" 0
scalar BusLAN.host[0].pingApp[39] pingRxSeq:count 38
attr interpolationmode none
attr title "ping rx seq, count"
scalar BusLAN.host[0].pingApp[39] pingTxSeq:count 289
attr interpolationmode none
attr title "ping tx seq, count"
scalar BusLAN.host[0].pingApp[39] numOutOfOrderArrivals:last nan
attr interpolationmode none
attr title "ping out-of-order arrivals, last"
scalar BusLAN.host[0].pingApp[39] numLost:last 321
attr interpolationmode none
attr title "pings lost, last"
scalar BusLAN.host[0].pingApp[39] rtt:mean 0.013677602735571
attr interpolationmode none
attr title "ping round-trip time, mean"
attr unit s
scalar BusLAN.host[0].pingApp[40] "Pings sent" 382
scalar BusLAN.host[0].pingApp[40] "ping loss rate (%)" 67.015706806283
scalar BusLAN.host[0].pingApp[40] "ping out-of-order rate (%)" 0.26178010471204
scalar BusLAN.host[0].pingApp[40] pingRxSeq:count 94
attr interpolationmode none
attr title "ping rx seq, count"
scalar BusLAN.host[0].pingApp[40] pingTxSeq:count 288
attr interpolationmode none
attr title "ping tx seq, count"
scalar BusLAN.host[0].pingApp[40] numOutOfOrderArrivals:last nan
attr interpolationmode none
attr title "ping out-of-order arrivals, last"
scalar BusLAN.host[0].pingApp[40] numLost:last 254
attr interpolationmode none
attr title "pings lost, last"
scalar BusLAN.host[0].pingApp[40] rtt:mean 0.012816740041309
attr interpolationmode none
attr title "ping round-trip time, mean"
attr unit s
scalar BusLAN.host[0].pingApp[41] "Pings sent" 386
scalar BusLAN.host[0].pingApp[41] "ping loss rate (%)" 89.119170984456
scalar BusLAN.host[0].pingApp[41] "ping out-of-order rate (%)" 0
scalar BusLAN.host[0].pingApp[41] pingRxSeq:count 35
attr interpolationmode none
attr title "ping rx seq, count"
scalar BusLAN.host[0].pingApp[41] pingTxSeq:count 296
attr interpolationmode none
attr title "ping tx seq, count"
scalar BusLAN.host[0].pingApp[41] numOutOfOrderArrivals:last nan
attr interpolationmode none
attr title "ping out-of-order arrivals, last"
scalar BusLAN.host[0].pingApp[41] numLost:last 342
attr interpolationmode none
attr title "pings lost, last"
scalar BusLAN.host[0].pingApp[41] rtt:mean 0.0131863231078
attr interpolationmode none
attr title "ping round-trip time, mean"
attr unit s
scalar BusLAN.host[0].pingApp[42] "Pings sent" 390
scalar BusLAN.host[0].pingApp[42] "ping loss rate (%)" 68.974358974359
scalar BusLAN.host[0].pingApp[42] "ping out-of-order rate (%)" 0.25641025641026
scalar BusLAN.host[0].pingApp[42] pingRxSeq:count 89
attr interpolationmode none
attr title "ping rx seq, count"
scalar BusLAN.host[0].pingApp[42] pingTxSeq:count 290
attr interpolationmode none
attr title "ping tx seq, count"
scalar BusLAN.host[0].pingApp[42] numOutOfOrderArrivals:last 1
attr interpolationmode none
attr title "ping out-of-order arrivals, last"
scalar BusLAN.host[0].pingApp[42] numLost:last 266
attr interpolationmode none
attr title "pings lost, last"
scalar BusLAN.host[0].pingApp[42] rtt:mean 0.013536626113179
attr interpolationmode none
attr title "ping round-trip time, mean"
attr unit s
scalar BusLAN.host[0].pingApp[43] "Pings sent" 382
scalar BusLAN.host[0].pingApp[43] "ping loss rate (%)" 68.062827225131
scalar BusLAN.host[0].pingApp[43] "ping out-of-order rate (%)" 0
scalar BusLAN.host[0].pingApp[43] pingRxSeq:count 88
attr interpolationmode none
attr title "ping rx seq, count"
scalar BusLAN.host[0].pingApp[43] pingTxSeq:count 289
attr interpolationmode none
attr title "ping tx seq, count"
scalar BusLAN.host[0].pingApp[43] numOutOfOrderArrivals:last nan
attr interpolationmode none
attr title "ping out-of-order arrivals, last"
scalar BusLAN.host[0].pingApp[43] numLost:last 259
attr interpolationmode none
attr title "pings lost, last"
scalar BusLAN.host[0].pingApp[43] rtt:mean 0.012752659426161
attr interpolationmode none
attr title "ping round-trip time, mean"
attr unit s
scalar BusLAN.host[0].pingApp[44] "Pings sent" 389
scalar BusLAN.host[0].pingApp[44] "ping loss rate (%)" 88.174807197943
scalar BusLAN.host[0].pingApp[44] "ping out-of-order rate (%)" 0
scalar BusLAN.host[0].pingApp[44] pingRxSeq:count 34
attr interpolationmode none
attr title "ping rx seq, count"
scalar BusLAN.host[0].pingApp[44] pingTxSeq:count 296
attr interpolationmode none
attr title "ping tx seq, count"
scalar BusLAN.host[0].pingApp[44] numOutOfOrderArrivals:last nan
attr interpolationmode none
attr title "ping out-of-order arrivals, last"
scalar BusLAN.host[0].pingApp[44] numLost:last 330
attr interpolationmode none
attr title "pings lost, last"
scalar BusLAN.host[0].pingApp[44] rtt:mean 0.01275629153
attr interpolationmode none
attr title "ping round-trip time, mean"
attr unit s
scalar BusLAN.host[0].pingApp[45] "Pings sent" 385
scalar BusLAN.host[0].pingApp[45] "ping loss rate (%)" 86.753246753247
scalar BusLAN.host[0].pingApp[45] "ping out-of-order rate (%)" 0
scalar BusLAN.host[0].pingApp[45] pingRxSeq:count 35
attr interpolationmode none
attr title "ping rx seq, count"
scalar BusLAN.host[0].pingApp[45] pingTxSeq:count 286
attr interpolationmode none
attr title "ping tx seq, count"
scalar BusLAN.host[0].pingApp[45] numOutOfOrderArrivals:last nan
attr interpolationmode none
attr title "ping out-of-order arrivals, last"
scalar BusLAN.host[0].pingApp[45] numLost:last 326
attr interpolationmode none
attr title "pings lost, last"
scalar BusLAN.host[0].pingApp[45] rtt:mean 0.014132514303
attr interpolationmode none
attr title "ping round-trip time, mean"
attr unit s
scalar BusLAN.host[0].pingApp[46] "Pings sent" 399
scalar BusLAN.host[0].pingApp[46] "ping loss rate (%)" 90.47619047619
scalar BusLAN.host[0].pingApp[46] "ping out-of-order rate (%)" 0
scalar BusLAN.host[0].pingApp[46] pingRxSeq:count 28
attr interpolationmode none
attr title "ping rx seq, count"
scalar BusLAN.host[0].pingApp[46] pingTxSeq:count 301
attr interpolationmode none
attr title "ping tx seq, count"
scalar BusLAN.host[0].pingApp[46] numOutOfOrderArrivals:last nan
attr interpolationmode none
attr title "ping out-of-order arrivals, last"
scalar BusLAN.host[0].pingApp[46] numLost:last 350
attr interpolationmode none
attr title "pings lost, last"
scalar BusLAN.host[0].pingApp[46] rtt:mean 0.012967877349
attr interpolationmode none
attr title "ping round-trip time, mean"
attr unit s
scalar BusLAN.host[0].pingApp[47] "Pings sent" 403
scalar BusLAN.host[0].pingApp[47] "ping loss rate (%)" 67.990074441687
scalar BusLAN.host[0].pingApp[47] "ping out-of-order rate (%)" 0
scalar BusLAN.host[0].pingApp[47] pingRxSeq:count 102
attr interpolationmode none
attr title "ping rx seq, count"
scalar BusLAN.host[0].pingApp[47] pingTxSeq:count 307
attr interpolationmode none
attr title "ping tx seq, count"
scalar BusLAN.host[0].pingApp[47] numOutOfOrderArrivals:last nan
attr interpolationmode none
attr title "ping out-of-order arrivals, last"
scalar BusLAN.host[0].pingApp[47] numLost:last 274
attr interpolationmode none
attr title "pings lost, last"
scalar BusLAN.host[0].pingApp[47] rtt:mean 0.013198118551406
attr interpolationmode none
attr title "ping round-trip time, mean"
attr unit s
scalar BusLAN.host[0].pingApp[48] "Pings sent" 379
scalar BusLAN.host[0].pingApp[48] "ping loss rate (%)" 68.337730870712
scalar BusLAN.host[0].pingApp[48] "ping out-of-order rate (%)" 0.26385224274406
scalar BusLAN.host[0].pingApp[48] pingRxSeq:count 93
attr interpolationmode none
attr title "ping rx seq, count"
scalar BusLAN.host[0].pingApp[48] pingTxSeq:count 289
attr interpolationmode none
attr title "ping tx seq, count"
scalar BusLAN.host[0].pingApp[48] numOutOfOrderArrivals:last 1
attr interpolationmode none
attr title "ping out-of-order arrivals, last"
scalar BusLAN.host[0].pingApp[48] numLost:last 257
attr interpolationmode none
attr title "pings lost, last"
scalar BusLAN.host[0].pingApp[48] rtt:mean 0.013483196508452
attr interpolationmode none
attr title "ping round-trip time, mean"
attr unit s
scalar BusLAN.host[0].pingApp[49] "Pings sent" 381
scalar BusLAN.host[0].pingApp[49] "ping loss rate (%)" 67.979002624672
scalar BusLAN.host[0].pingApp[49] "ping out-of-order rate (%)" 0.26246719160105
scalar BusLAN.host[0].pingApp[49] pingRxSeq:count 95
attr interpolationmode none
attr title "ping rx seq, count"
scalar BusLAN.host[0].pingApp[49] pingTxSeq:count 286
attr interpolationmode none
attr title "ping tx seq, count"
scalar BusLAN.host[0].pingApp[49] numOutOfOrderArrivals:last 1
attr interpolationmode none
attr title "ping out-of-order arrivals, last"
scalar BusLAN.host[0].pingApp[49] numLost:last 256
attr interpolationmode none
attr title "pings lost, last"
scalar BusLAN.host[0].pingApp[49] rtt:mean 0.012742000174148
attr interpolationmode none
attr title "ping round-trip time, mean"
attr unit s
scalar BusLAN.host[0].pingApp[50] "Pings sent" 380
scalar BusLAN.host[0].pingApp[50] "ping loss rate (%)" 65.789473684211
scalar BusLAN.host[0].pingApp[50] "ping out-of-order rate (%)" 0.26315789473684
scalar BusLAN.host[0].pingApp[50] pingRxSeq:count 101
attr interpolationmode none
attr title "ping rx seq, count"
scalar BusLAN.host[0].pingApp[50] pingTxSeq:count 282
attr interpolationmode none
attr title "ping tx seq, count"
scalar BusLAN.host[0].pingApp[50] numOutOfOrderArrivals:last nan
attr interpolationmode none
attr title "ping out-of-order arrivals, last"
scalar BusLAN.host[0].pingApp[50] numLost:last 248
attr interpolationmode none
attr title "pings lost, last"
scalar BusLAN.host[0].pingApp[50] rtt:mean 0.01258356338625
attr interpolationmode none
attr title "ping round-trip time, mean"
attr unit s
scalar BusLAN.host[0].pingApp[51] "Pings sent" 374
scalar BusLAN.host[0].pingApp[51] "ping loss rate (%)" 89.03743315508
scalar BusLAN.host[0].pingApp[51] "ping out-of-order rate (%)" 0
scalar BusLAN.host[0].pingApp[51] pingRxSeq:count 30
attr interpolationmode none
attr title "ping rx seq, count"
scalar BusLAN.host[0].pingApp[51] pingTxSeq:count 275
attr interpolationmode none
attr title "ping tx seq, count"
scalar BusLAN.host[0].pingApp[51] numOutOfOrderArrivals:last nan
attr interpolationmode none
attr title "ping out-of-order arrivals, last"
scalar BusLAN.host[0].pingApp[51] numLost:last 332
attr interpolationmode none
attr title "pings lost, last"
scalar BusLAN.host[0].pingApp[51] rtt:mean 0.014134036778
attr interpolationmode none
attr title "ping round-trip time, mean"
attr unit s
scalar BusLAN.host[0].pingApp[52] "Pings sent" 379
scalar BusLAN.host[0].pingApp[52] "ping loss rate (%)" 90.501319261214
scalar BusLAN.host[0].pingApp[52] "ping out-of-order rate (%)" 0
scalar BusLAN.host[0].pingApp[52] pingRxSeq:count 26
attr interpolationmode none
attr title "ping rx seq, count"
scalar BusLAN.host[0].pingApp[52] pingTxSeq:count 287
attr interpolationmode none
attr title "ping tx seq, count"
scalar BusLAN.host[0].pingApp[52] numOutOfOrderArrivals:last nan
attr interpolationmode none
attr title "ping out-of-order arrivals, last"
scalar BusLAN.host[0].pingApp[52] numLost:last 338
attr interpolationmode none
attr title "pings lost, last"
scalar BusLAN.host[0].pingApp[52] rtt:mean 0.01366327290325
attr interpolationmode none
attr title "ping round-trip time, mean"
attr unit s
scalar BusLAN.host[0].pingApp[53] "Pings sent" 391
scalar BusLAN.host[0].pingApp[53] "ping loss rate (%)" 91.304347826087
scalar BusLAN.host[0].pingApp[53] "ping out-of-order rate (%)" 0
scalar BusLAN.host[0].pingApp[53] pingRxSeq:count 18
attr interpolationmode none
attr title "ping rx seq, count"
scalar BusLAN.host[0].pingApp[53] pingTxSeq:count 288
attr interpolationmode none
attr title "ping tx seq, count"
scalar BusLAN.host[0].pingApp[53] numOutOfOrderArrivals:last nan
attr interpolationmode none
attr title "ping out-of-order arrivals, last"
scalar BusLAN.host[0].pingApp[53] numLost:last 356
attr interpolationmode none
attr title "pings lost, last"
scalar BusLAN.host[0].pingApp[53] rtt:mean 0.0141322337695
attr interpolationmode none
attr title "ping round-trip time, mean"
attr unit s
scalar BusLAN.host[0].pingApp[54] "Pings sent" 387
scalar BusLAN.host[0].pingApp[54] "ping loss rate (%)" 90.439276485788
scalar BusLAN.host[0].pingApp[54] "ping out-of-order rate (%)" 0
scalar BusLAN.host[0].pingApp[54] pingRxSeq:count 26
attr interpolationmode none
attr title "ping rx seq, count"
scalar BusLAN.host[0].pingApp[54] pingTxSeq:count 296
attr interpolationmode none
attr title "ping tx seq, count"
scalar BusLAN.host[0].pingApp[54] numOutOfOrderArrivals:last nan
attr interpolationmode none
attr title "ping out-of-order arrivals, last"
scalar BusLAN.host[0].pingApp[54] numLost:last 325
attr interpolationmode none
attr title "pings lost, last"
scalar BusLAN.host[0].pingApp[54] rtt:mean 0.0132114086395
attr interpolationmode none
attr title "ping round-trip time, mean"
attr unit s
scalar BusLAN.host[0].pingApp[55] "Pings sent" 383
scalar BusLAN.host[0].pingApp[55] "ping loss rate (%)" 86.945169712794
scalar BusLAN.host[0].pingApp[55] "ping out-of-order rate (%)" 0
scalar BusLAN.host[0].pingApp[55] pingRxSeq:count 35
attr interpolationmode none
attr title "ping rx seq, count"
scalar BusLAN.host[0].pingApp[55] pingTxSeq:count 292
attr interpolationmode none
attr title "ping tx seq, count"
scalar BusLAN.host[0].pingApp[55] numOutOfOrderArrivals:last nan
attr interpolationmode none
attr title "ping out-of-order arrivals, last"
scalar BusLAN.host[0].pingApp[55] numLost:last 324
attr interpolationmode none
attr title "pings lost, last"
scalar BusLAN.host[0].pingApp[55] rtt:mean 0.013762497333
attr interpolationmode none
attr title "ping round-trip time, mean"
attr unit s
scalar BusLAN.host[0].pingApp[56] "Pings sent" 399
scalar BusLAN.host[0].pingApp[56] "ping loss rate (%)" 88.220551378446
scalar BusLAN.host[0].pingApp[56] "ping out-of-order rate (%)" 0.25062656641604
scalar BusLAN.host[0].pingApp[56] pingRxSeq:count 37
attr interpolationmode none
attr title "ping rx seq, count"
scalar BusLAN.host[0].pingApp[56] pingTxSeq:count 300
attr interpolationmode none
attr title "ping tx seq, count"
scalar BusLAN.host[0].pingApp[56] numOutOfOrderArrivals:last 1
attr interpolationmode none
attr title "ping out-of-order arrivals, last"
scalar BusLAN.host[0].pingApp[56] numLost:last 348
attr interpolationmode none
attr title "pings lost, last"
scalar BusLAN.host[0].pingApp[56] rtt:mean 0.0128939585108
attr interpolationmode none
attr title "ping round-trip time, mean"
attr unit s
scalar BusLAN.host[0].pingApp[57] "Pings sent" 389
scalar BusLAN.host[0].pingApp[57] "ping loss rate (%)" 86.889460154242
scalar BusLAN.host[0].pingApp[57] "ping out-of-order rate (%)" 0.25706940874036
scalar BusLAN.host[0].pingApp[57] pingRxSeq:count 33
attr interpolationmode none
attr title "ping rx seq, count"
scalar BusLAN.host[0].pingApp[57] pingTxSeq:count 298
attr interpolationmode none
attr title "ping tx seq, count"
scalar BusLAN.host[0].pingApp[57] numOutOfOrderArrivals:last 1
attr interpolationmode none
attr title "ping out-of-order arrivals, last"
scalar BusLAN.host[0].pingApp[57] numLost:last 333
attr interpolationmode none
attr title "pings lost, last"
scalar BusLAN.host[0].pingApp[57] rtt:mean 0.0131399854518
attr interpolationmode none
attr title "ping round-trip time, mean"
attr unit s
scalar BusLAN.host[0].pingApp[58] "Pings sent" 379
scalar BusLAN.host[0].pingApp[58] "ping loss rate (%)" 67.54617414248
scalar BusLAN.host[0].pingApp[58] "ping out-of-order rate (%)" 0
scalar BusLAN.host[0].pingApp[58] pingRxSeq:count 84
attr interpolationmode none
attr title "ping rx seq, count"
scalar BusLAN.host[0].pingApp[58] pingTxSeq:count 282
attr interpolationmode none
attr title "ping tx seq, count"
scalar BusLAN.host[0].pingApp[58] numOutOfOrderArrivals:last nan
attr interpolationmode none
attr title "ping out-of-order arrivals, last"
scalar BusLAN.host[0].pingApp[58] numLost:last 253
attr interpolationmode none
attr title "pings lost, last"
scalar BusLAN.host[0].pingApp[58] rtt:mean 0.013189032995481
attr interpolationmode none
attr title "ping round-trip time, mean"
attr unit s
scalar BusLAN.host[0].pingApp[59] "Pings sent" 393
scalar BusLAN.host[0].pingApp[59] "ping loss rate (%)" 70.992366412214
scalar BusLAN.host[0].pingApp[59] "ping out-of-order rate (%)" 0
scalar BusLAN.host[0].pingApp[59] pingRxSeq:count 92
attr interpolationmode none
attr title "ping rx seq, count"
scalar BusLAN.host[0].pingApp[59] pingTxSeq:count 308
attr interpolationmode none
attr title "ping tx seq, count"
scalar BusLAN.host[0].pingApp[59] numOutOfOrderArrivals:last nan
attr interpolationmode none
attr title "ping out-of-order arrivals, last"
scalar BusLAN.host[0].pingApp[59] numLost:last 279
attr interpolationmode none
attr title "pings lost, last"
scalar BusLAN.host[0].pingApp[59] rtt:mean 0.013129573001683
attr interpolationmode none
attr title "ping round-trip time, mean"
attr unit s
scalar BusLAN.host[0].pingApp[60] "Pings sent" 387
scalar BusLAN.host[0].pingApp[60] "ping loss rate (%)" 88.372093023256
scalar BusLAN.host[0].pingApp[60] "ping out-of-order rate (%)" 0
scalar BusLAN.host[0].pingApp[60] pingRxSeq:count 31
attr interpolationmode none
attr title "ping rx seq, count"
scalar BusLAN.host[0].pingApp[60] pingTxSeq:count 292
attr interpolationmode none
attr title "ping tx seq, count"
scalar BusLAN.host[0].pingApp[60] numOutOfOrderArrivals:last nan
attr interpolationmode none
attr title "ping out-of-order arrivals, last"
scalar BusLAN.host[0].pingApp[60] numLost:last 323
attr interpolationmode none
attr title "pings lost, last"
scalar BusLAN.host[0].pingApp[60] rtt:mean 0.0121028400165
attr interpolationmode none
attr title "ping round-trip time, mean"
attr unit s
scalar BusLAN.host[0].pingApp[61] "Pings sent" 385
scalar BusLAN.host[0].pingApp[61] "ping loss rate (%)" 89.87012987013
scalar BusLAN.host[0].pingApp[61] "ping out-of-order rate (%)" 0
scalar BusLAN.host[0].pingApp[61] pingRxSeq:count 27
attr interpolationmode none
attr title "ping rx seq, count"
scalar BusLAN.host[0].pingApp[61] pingTxSeq:count 293
attr interpolationmode none
attr title "ping tx seq, count"
scalar BusLAN.host[0].pingApp[61] numOutOfOrderArrivals:last nan
attr interpolationmode none
attr title "ping out-of-order arrivals, last"
scalar BusLAN.host[0].pingApp[61] numLost:last 344
attr interpolationmode none
attr title "pings lost, last"
scalar BusLAN.host[0].pingApp[61] rtt:mean 0.0132768175216
attr interpolationmode none
attr title "ping round-trip time, mean"
attr unit s
scalar BusLAN.host[0].pingApp[62] "Pings sent" 387
scalar BusLAN.host[0].pingApp[62] "ping loss rate (%)" 87.080103359173
scalar BusLAN.host[0].pingApp[62] "ping out-of-order rate (%)" 0
scalar BusLAN.host[0].pingApp[62] pingRxSeq:count 37
attr interpolationmode none
attr title "ping rx seq, count"
scalar BusLAN.host[0].pingApp[62] pingTxSeq:count 303
attr interpolationmode none
attr title "ping tx seq, count"
scalar BusLAN.host[0].pingApp[62] numOutOfOrderArrivals:last nan
attr interpolationmode none
attr title "ping out-of-order arrivals, last"
scalar BusLAN.host[0].pingApp[62] numLost:last 336
attr interpolationmode none
attr title "pings lost, last"
scalar BusLAN.host[0].pingApp[62] rtt:mean 0.012902727573667
attr interpolationmode none
attr title "ping round-trip time, mean"
attr unit s
scalar BusLAN.host[0].pingApp[63] "Pings sent" 395
scalar BusLAN.host[0].pingApp[63] "ping loss rate (%)" 89.113924050633
scalar BusLAN.host[0].pingApp[63] "ping out-of-order rate (%)" 0
scalar BusLAN.host[0].pingApp[63] pingRxSeq:count 30
attr interpolationmode none
attr title "ping rx seq, count"
scalar BusLAN.host[0].pingApp[63] pingTxSeq:count 295
attr interpolationmode none
attr title "ping tx seq, count"
scalar BusLAN.host[0].pingApp[63] numOutOfOrderArrivals:last nan
attr interpolationmode none
attr title "ping out-of-order arrivals, last"
scalar BusLAN.host[0].pingApp[63] numLost:last 346
attr interpolationmode none
attr title "pings lost, last"
scalar BusLAN.host[0].pingApp[63] rtt:mean 0.0132977947795
attr interpolationmode none
attr title "ping round-trip time, mean"
attr unit s
scalar BusLAN.host[0].pingApp[64] "Pings sent" 383
scalar BusLAN.host[0].pingApp[64] "ping loss rate (%)" 90.600522193211
scalar BusLAN.host[0].pingApp[64] "ping out-of-order rate (%)" 0
scalar BusLAN.host[0].pingApp[64] pingRxSeq:count 23
attr interpolationmode none
attr title "ping rx seq, count"
scalar BusLAN.host[0].pingApp[64] pingTxSeq:count 289
attr interpolationmode none
attr title "ping tx seq, count"
scalar BusLAN.host[0].pingApp[64] numOutOfOrderArrivals:last nan
attr interpolationmode none
attr title "ping out-of-order arrivals, last"
scalar BusLAN.host[0].pingApp[64] numLost:last 337
attr interpolationmode none
attr title "pings lost, last"
scalar BusLAN.host[0].pingApp[64] rtt:mean 0.0126702565045
attr interpolationmode none
attr title "ping round-trip time, mean"
attr unit s
scalar BusLAN.host[0].pingApp[65] "Pings sent" 393
scalar BusLAN.host[0].pingApp[65] "ping loss rate (%)" 69.72010178117
scalar BusLAN.host[0].pingApp[65] "ping out-of-order rate (%)" 0.25445292620865
scalar BusLAN.host[0].pingApp[65] pingRxSeq:count 96
attr interpolationmode none
attr title "ping rx seq, count"
scalar BusLAN.host[0].pingApp[65] pingTxSeq:count 292
attr interpolationmode none
attr title "ping tx seq, count"
scalar BusLAN.host[0].pingApp[65] numOutOfOrderArrivals:last 1
attr interpolationmode none
attr title "ping out-of-order arrivals, last"
scalar BusLAN.host[0].pingApp[65] numLost:last 269
attr interpolationmode none
attr title "pings lost, last"
scalar BusLAN.host[0].pingApp[65] rtt:mean 0.013652494643197
attr interpolationmode none
attr title "ping round-trip time, mean"
attr unit s
scalar BusLAN.host[0].pingApp[66] "Pings sent" 387
scalar BusLAN.host[0].pingApp[66] "ping loss rate (%)" 89.922480620155
scalar BusLAN.host[0].pingApp[66] "ping out-of-order rate (%)" 0
scalar BusLAN.host[0].pingApp[66] pingRxSeq:count 31
attr interpolationmode none
attr title "ping rx seq, count"
scalar BusLAN.host[0].pingApp[66] pingTxSeq:count 293
attr interpolationmode none
attr title "ping tx seq, count"
scalar BusLAN.host[0].pingApp[66] numOutOfOrderArrivals:last nan
attr interpolationmode none
attr title "ping out-of-order arrivals, last"
scalar BusLAN.host[0].pingApp[66] numLost:last 346
attr interpolationmode none
attr title "pings lost, last"
scalar BusLAN.host[0].pingApp[66] rtt:mean 0.013779171495111
attr interpolationmode none
attr title "ping round-trip time, mean"
attr unit s
scalar BusLAN.host[0].pingApp[67] "Pings sent" 384
scalar BusLAN.host[0].pingApp[67] "ping loss rate (%)" 65.104166666667
scalar BusLAN.host[0].pingApp[67] "ping out-of-order rate (%)" 0
scalar BusLAN.host[0].pingApp[67] pingRxSeq:count 104
attr interpolationmode none
attr title "ping rx seq, count"
scalar BusLAN.host[0].pingApp[67] pingTxSeq:count 291
attr interpolationmode none
attr title "ping tx seq, count"
scalar BusLAN.host[0].pingApp[67] numOutOfOrderArrivals:last nan
attr interpolationmode none
attr title "ping out-of-order arrivals, last"
scalar BusLAN.host[0].pingApp[67] numLost:last 240
attr interpolationmode none
attr title "pings lost, last"
scalar BusLAN.host[0].pingApp[67] rtt:mean 0.013665263936378
attr interpolationmode none
attr title "ping round-trip time, mean"
attr unit s
scalar BusLAN.host[0].pingApp[68] "Pings sent" 373
scalar BusLAN.host[0].pingApp[68] "ping loss rate (%)" 64.611260053619
scalar BusLAN.host[0].pingApp[68] "ping out-of-order rate (%)" 0.26809651474531
scalar BusLAN.host[0].pingApp[68] pingRxSeq:count 101
attr interpolationmode none
attr title "ping rx seq, count"
scalar BusLAN.host[0].pingApp[68] pingTxSeq:count 277
attr interpolationmode none
attr title "ping tx seq, count"
scalar BusLAN.host[0].pingApp[68] numOutOfOrderArrivals:last 1
attr interpolationmode none
attr title "ping out-of-order arrivals, last"
scalar BusLAN.host[0].pingApp[68] numLost:last 236
attr interpolationmode none
attr title "pings lost, last"
scalar BusLAN.host[0].pingApp[68] rtt:mean 0.014096478286074
attr interpolationmode none
attr title "ping round-trip time, mean"
attr unit s
scalar BusLAN.host[0].pingApp[69] "Pings sent" 397
scalar BusLAN.host[0].pingApp[69] "ping loss rate (%)" 88.916876574307
scalar BusLAN.host[0].pingApp[69] "ping out-of-order rate (%)" 0
scalar BusLAN.host[0].pingApp[69] pingRxSeq:count 32
attr interpolationmode none
attr title "ping rx seq, count"
scalar BusLAN.host[0].pingApp[69] pingTxSeq:count 299
attr interpolationmode none
attr title "ping tx seq, count"
scalar BusLAN.host[0].pingApp[69] numOutOfOrderArrivals:last nan
attr interpolationmode none
attr title "ping out-of-order arrivals, last"
scalar BusLAN.host[0].pingApp[69] numLost:last 347
attr interpolationmode none
attr title "pings lost, last"
scalar BusLAN.host[0].pingApp[69] rtt:mean 0.013176717098667
attr interpolationmode none
attr title "ping round-trip time, mean"
attr unit s
scalar BusLAN.host[0].pingApp[70] "Pings sent" 370
scalar BusLAN.host[0].pingApp[70] "ping loss rate (%)" 89.189189189189
scalar BusLAN.host[0].pingApp[70] "ping out-of-order rate (%)" 0
scalar BusLAN.host[0].pingApp[70] pingRxSeq:count 29
attr interpolationmode none
attr title "ping rx seq, count"
scalar BusLAN.host[0].pingApp[70] pingTxSeq:count 281
attr interpolationmode none
attr title "ping tx seq, count"
scalar BusLAN.host[0].pingApp[70] numOutOfOrderArrivals:last nan
attr interpolationmode none
attr title "ping out-of-order arrivals, last"
scalar BusLAN.host[0].pingApp[70] numLost:last 328
attr interpolationmode none
attr title "pings lost, last"
scalar BusLAN.host[0].pingApp[70] rtt:mean 0.0138150155895
attr interpolationmode none
attr title "ping round-trip time, mean"
attr unit s
scalar BusLAN.host[0].pingApp[71] "Pings sent" 387
scalar BusLAN.host[0].pingApp[71] "ping loss rate (%)" 87.596899224806
scalar BusLAN.host[0].pingApp[71] "ping out-of-order rate (%)" 0
scalar BusLAN.host[0].pingApp[71] pingRxSeq:count 36
attr interpolationmode none
attr title "ping rx seq, count"
scalar BusLAN.host[0].pingApp[71] pingTxSeq:count 292
attr interpolationmode none
attr title "ping tx seq, count"
scalar BusLAN.host[0].pingApp[71] numOutOfOrderArrivals:last nan
attr interpolationmode none
attr title "ping out-of-order arrivals, last"
scalar BusLAN.host[0].pingApp[71] numLost:last 328
attr interpolationmode none
attr title "pings lost, last"
scalar BusLAN.host[0].pingApp[71] rtt:mean 0.014016965869333
attr interpolationmode none
attr title "ping round-trip time, mean"
attr unit s
scalar BusLAN.host[0].pingApp[72] "Pings sent" 402
scalar BusLAN.host[0].pingApp[72] "ping loss rate (%)" 71.641791044776
scalar BusLAN.host[0].pingApp[72] "ping out-of-order rate (%)" 0.24875621890547
scalar BusLAN.host[0].pingApp[72] pingRxSeq:count 84
attr interpolationmode none
attr title "ping rx seq, count"
scalar BusLAN.host[0].pingApp[72] pingTxSeq:count 300
attr interpolationmode none
attr title "ping tx seq, count"
scalar BusLAN.host[0].pingApp[72] numOutOfOrderArrivals:last 1
attr interpolationmode none
attr title "ping out-of-order arrivals, last"
scalar BusLAN.host[0].pingApp[72] numLost:last 287
attr interpolationmode none
attr title "pings lost, last"
scalar BusLAN.host[0].pingApp[72] rtt:mean 0.013675120390434
attr interpolationmode none
attr title "ping round-trip time, mean"
attr unit s
scalar BusLAN.host[0].pingApp[73] "Pings sent" 394
scalar BusLAN.host[0].pingApp[73] "ping loss rate (%)" 67.766497461929
scalar BusLAN.host[0].pingApp[73] "ping out-of-order rate (%)" 0.25380710659898
scalar BusLAN.host[0].pingApp[73] pingRxSeq:count 101
attr interpolationmode none
attr title "ping rx seq, count"
scalar BusLAN.host[0].pingApp[73] pingTxSeq:count 302
attr interpolationmode none
attr title "ping tx seq, count"
scalar BusLAN.host[0].pingApp[73] numOutOfOrderArrivals:last nan
attr interpolationmode none
attr title "ping out-of-order arrivals, last"
scalar BusLAN.host[0].pingApp[73] numLost:last 265
attr interpolationmode none
attr title "pings lost, last"
scalar BusLAN.host[0].pingApp[73] rtt:mean 0.013508505375187
attr interpolationmode none
attr title "ping round-trip time, mean"
attr unit s
scalar BusLAN.host[0].pingApp[74] "Pings sent" 370
scalar BusLAN.host[0].pingApp[74] "ping loss rate (%)" 86.486486486486
scalar BusLAN.host[0].pingApp[74] "ping out-of-order rate (%)" 0
scalar BusLAN.host[0].pingApp[74] pingRxSeq:count 39
attr interpolationmode none
attr title "ping rx seq, count"
scalar BusLAN.host[0].pingApp[74] pingTxSeq:count 282
attr interpolationmode none
attr title "ping tx seq, count"
scalar BusLAN.host[0].pingApp[74] numOutOfOrderArrivals:last nan
attr interpolationmode none
attr title "ping out-of-order arrivals, last"
scalar BusLAN.host[0].pingApp[74] numLost:last 309
attr interpolationmode none
attr title "pings lost, last"
scalar BusLAN.host[0].pingApp[74] rtt:mean 0.0135086950106
attr interpolationmode none
attr title "ping round-trip time, mean"
attr unit s
scalar BusLAN.host[0].pingApp[75] "Pings sent" 396
scalar BusLAN.host[0].pingApp[75] "ping loss rate (%)" 70.707070707071
scalar BusLAN.host[0].pingApp[75] "ping out-of-order rate (%)" 0
scalar BusLAN.host[0].pingApp[75] pingRxSeq:count 88
attr interpolationmode none
attr title "ping rx seq, count"
scalar BusLAN.host[0].pingApp[75] pingTxSeq:count 304
attr interpolationmode none
attr title "ping tx seq, count"
scalar BusLAN.host[0].pingApp[75] numOutOfOrderArrivals:last nan
attr interpolationmode none
attr title "ping out-of-order arrivals, last"
scalar BusLAN.host[0].pingApp[75] numLost:last 280
attr interpolationmode none
attr title "pings lost, last"
scalar BusLAN.host[0].pingApp[75] rtt:mean 0.01349572538634
attr interpolationmode none
attr title "ping round-trip time, mean"
attr unit s
scalar BusLAN.host[0].pingApp[76] "Pings sent" 389
scalar BusLAN.host[0].pingApp[76] "ping loss rate (%)" 84.832904884319
scalar BusLAN.host[0].pingApp[76] "ping out-of-order rate (%)" 0
scalar BusLAN.host[0].pingApp[76] pingRxSeq:count 41
attr interpolationmode none
attr title "ping rx seq, count"
scalar BusLAN.host[0].pingApp[76] pingTxSeq:count 292
attr interpolationmode none
attr title "ping tx seq, count"
scalar BusLAN.host[0].pingApp[76] numOutOfOrderArrivals:last nan
attr interpolationmode none
attr title "ping out-of-order arrivals, last"
scalar BusLAN.host[0].pingApp[76] numLost:last 330
attr interpolationmode none
attr title "pings lost, last"
scalar BusLAN.host[0].pingApp[76] rtt:mean 0.012683227010667
attr interpolationmode none
attr title "ping round-trip time, mean"
attr unit s
scalar BusLAN.host[0].pingApp[77] "Pings sent" 382
scalar BusLAN.host[0].pingApp[77] "ping loss rate (%)" 68.586387434555
scalar BusLAN.host[0].pingApp[77] "ping out-of-order rate (%)" 0
scalar BusLAN.host[0].pingApp[77] pingRxSeq:count 87
attr interpolationmode none
attr title "ping rx seq, count"
scalar BusLAN.host[0].pingApp[77] pingTxSeq:count 291
attr interpolationmode none
attr title "ping tx seq, count"
scalar BusLAN.host[0].pingApp[77] numOutOfOrderArrivals:last nan
attr interpolationmode none
attr title "ping out-of-order arrivals, last"
scalar BusLAN.host[0].pingApp[77] numLost:last 248
attr interpolationmode none
attr title "pings lost, last"
scalar BusLAN.host[0].pingApp[77] rtt:mean 0.01389738925887
attr interpolationmode none
attr title "ping round-trip time, mean"
attr unit s
scalar BusLAN.host[0].pingApp[78] "Pings sent" 378
scalar BusLAN.host[0].pingApp[78] "ping loss rate (%)" 65.873015873016
scalar BusLAN.host[0].pingApp[78] "ping out-of-order rate (%)" 0
scalar BusLAN.host[0].pingApp[78] pingRxSeq:count 95
attr interpolationmode none
attr title "ping rx seq, count"
scalar BusLAN.host[0].pingApp[78] pingTxSeq:count 287
attr interpolationmode none
attr title "ping tx seq, count"
scalar BusLAN.host[0].pingApp[78] numOutOfOrderArrivals:last nan
attr interpolationmode none
attr title "ping out-of-order arrivals, last"
scalar BusLAN.host[0].pingApp[78] numLost:last 240
attr interpolationmode none
attr title "pings lost, last"
scalar BusLAN.host[0].pingApp[78] rtt:mean 0.01288469985222
attr interpolationmode none
attr title "ping round-trip time, mean"
attr unit s
scalar BusLAN.host[0].pingApp[79] "Pings sent" 396
scalar BusLAN.host[0].pingApp[79] "ping loss rate (%)" 70.959595959596
scalar BusLAN.host[0].pingApp[79] "ping out-of-order rate (%)" 0
scalar BusLAN.host[0].pingApp[79] pingRxSeq:count 85
attr interpolationmode none
attr title "ping rx seq, count"
scalar BusLAN.host[0].pingApp[79] pingTxSeq:count 310
attr interpolationmode none
attr title "ping tx seq, count"
scalar BusLAN.host[0].pingApp[79] numOutOfOrderArrivals:last nan
attr interpolationmode none
attr title "ping out-of-order arrivals, last"
scalar BusLAN.host[0].pingApp[79] numLost:last 281
attr interpolationmode none
attr title "pings lost, last"
scalar BusLAN.host[0].pingApp[79] rtt:mean 0.014059772757321
attr interpolationmode none
attr title "ping round-trip time, mean"
attr unit s
scalar BusLAN.host[0].pingApp[80] "Pings sent" 381
scalar BusLAN.host[0].pingApp[80] "ping loss rate (%)" 71.391076115486
scalar BusLAN.host[0].pingApp[80] "ping out-of-order rate (%)" 0
scalar BusLAN.host[0].pingApp[80] pingRxSeq:count 78
attr interpolationmode none
attr title "ping rx seq, count"
scalar BusLAN.host[0].pingApp[80] pingTxSeq:count 286
attr interpolationmode none
attr title "ping tx seq, count"
scalar BusLAN.host[0].pingApp[80] numOutOfOrderArrivals:last nan
attr interpolationmode none
attr title "ping out-of-order arrivals, last"
scalar BusLAN.host[0].pingApp[80] numLost:last 271
attr interpolationmode none
attr title "pings lost, last"
scalar BusLAN.host[0].pingApp[80] rtt:mean 0.013200815233017
attr interpolationmode none
attr title "ping round-trip time, mean"
attr unit s
scalar BusLAN.host[0].pingApp[81] "Pings sent" 398
scalar BusLAN.host[0].pingApp[81] "ping loss rate (%)" 90.201005025126
scalar BusLAN.host[0].pingApp[81] "ping out-of-order rate (%)" 0
scalar BusLAN.host[0].pingApp[81] pingRxSeq:count 30
attr interpolationmode none
attr title "ping rx seq, count"
scalar BusLAN.host[0].pingApp[81] pingTxSeq:count 297
attr interpolationmode none
attr title "ping tx seq, count"
scalar BusLAN.host[0].pingApp[81] numOutOfOrderArrivals:last nan
attr interpolationmode none
attr title "ping out-of-order arrivals, last"
scalar BusLAN.host[0].pingApp[81] numLost:last 338
attr interpolationmode none
attr title "pings lost, last"
scalar BusLAN.host[0].pingApp[81] rtt:mean 0.0129951602254
attr interpolationmode none
attr title "ping round-trip time, mean"
attr unit s
scalar BusLAN.host[0].pingApp[82] "Pings sent" 383
scalar BusLAN.host[0].pingApp[82] "ping loss rate (%)" 89.556135770235
scalar BusLAN.host[0].pingApp[82] "ping out-of-order rate (%)" 0
scalar BusLAN.host[0].pingApp[82] pingRxSeq:count 31
attr interpolationmode none
attr title "ping rx seq, count"
scalar BusLAN.host[0].pingApp[82] pingTxSeq:count 286
attr interpolationmode none
attr title "ping tx seq, count"
scalar BusLAN.host[0].pingApp[82] numOutOfOrderArrivals:last nan
attr interpolationmode none
attr title "ping out-of-order arrivals, last"
scalar BusLAN.host[0].pingApp[82] numLost:last 338
attr interpolationmode none
attr title "pings lost, last"
scalar BusLAN.host[0].pingApp[82] rtt:mean 0.014150952013
attr interpolationmode none
attr title "ping round-trip time, mean"
attr unit s
scalar BusLAN.host[0].pingApp[83] "Pings sent" 382
scalar BusLAN.host[0].pingApp[83] "ping loss rate (%)" 86.387434554974
scalar BusLAN.host[0].pingApp[83] "ping out-of-order rate (%)" 0
scalar BusLAN.host[0].pingApp[83] pingRxSeq:count 39
attr interpolationmode none
attr title "ping rx seq, count"
scalar BusLAN.host[0].pingApp[83] pingTxSeq:count 292
attr interpolationmode none
attr title "ping tx seq, count"
scalar BusLAN.host[0].pingApp[83] numOutOfOrderArrivals:last nan
attr interpolationmode none
attr title "ping out-of-order arrivals, last"
scalar BusLAN.host[0].pingApp[83] numLost:last 318
attr interpolationmode none
attr title "pings lost, last"
scalar BusLAN.host[0].pingApp[83] rtt:mean 0.012445208051667
attr interpolationmode none
attr title "ping round-trip time, mean"
attr unit s
scalar BusLAN.host[0].pingApp[84] "Pings sent" 380
scalar BusLAN.host[0].pingApp[84] "ping loss rate (%)" 69.473684210526
scalar BusLAN.host[0].pingApp[84] "ping out-of-order rate (%)" 0
scalar BusLAN.host[0].pingApp[84] pingRxSeq:count 90
attr interpolationmode none
attr title "ping rx seq, count"
scalar BusLAN.host[0].pingApp[84] pingTxSeq:count 291
attr interpolationmode none
attr title "ping tx seq, count"
scalar BusLAN.host[0].pingApp[84] numOutOfOrderArrivals:last nan
attr interpolationmode none
attr title "ping out-of-order arrivals, last"
scalar BusLAN.host[0].pingApp[84] numLost:last 263
attr interpolationmode none
attr title "pings lost, last"
scalar BusLAN.host[0].pingApp[84] rtt:mean 0.013808513353985
attr interpolationmode none
attr title "ping round-trip time, mean"
attr unit s
scalar BusLAN.host[0].pingApp[85] "Pings sent" 382
scalar BusLAN.host[0].pingApp[85] "ping loss rate (%)" 88.219895287958
scalar BusLAN.host[0].pingApp[85] "ping out-of-order rate (%)" 0
scalar BusLAN.host[0].pingApp[85] pingRxSeq:count 32
attr interpolationmode none
attr title "ping rx seq, count"
scalar BusLAN.host[0].pingApp[85] pingTxSeq:count 291
attr interpolationmode none
attr title "ping tx seq, count"
scalar BusLAN.host[0].pingApp[85] numOutOfOrderArrivals:last nan
attr interpolationmode none
attr title "ping out-of-order arrivals, last"
scalar BusLAN.host[0].pingApp[85] numLost:last 330
attr interpolationmode none
attr title "pings lost, last"
scalar BusLAN.host[0].pingApp[85] rtt:mean 0.013443316331
attr interpolationmode none
attr title "ping round-trip time, mean"
attr unit s
scalar BusLAN.host[0].pingApp[86] "Pings sent" 391
scalar BusLAN.host[0].pingApp[86] "ping loss rate (%)" 84.398976982097
scalar BusLAN.host[0].pingApp[86] "ping out-of-order rate (%)" 0
scalar BusLAN.host[0].pingApp[86] pingRxSeq:count 43
attr interpolationmode none
attr title "ping rx seq, count"
scalar BusLAN.host[0].pingApp[86] pingTxSeq:count 299
attr interpolationmode none
attr title "ping tx seq, count"
scalar BusLAN.host[0].pingApp[86] numOutOfOrderArrivals:last nan
attr interpolationmode none
attr title "ping out-of-order arrivals, last"
[...]
attr interpolationmode none
attr title "ping tx seq, count"
scalar BusLAN.host[9].pingApp[101] numOutOfOrderArrivals:last nan
attr interpolationmode none
attr title "ping out-of-order arrivals, last"
scalar BusLAN.host[9].pingApp[101] numLost:last 343
attr interpolationmode none
attr title "pings lost, last"
scalar BusLAN.host[9].pingApp[101] rtt:mean 0.01369177719825
attr interpolationmode none
attr title "ping round-trip time, mean"
attr unit s
scalar BusLAN.host[9].pingApp[102] "Pings sent" 386
scalar BusLAN.host[9].pingApp[102] "ping loss rate (%)" 66.580310880829
scalar BusLAN.host[9].pingApp[102] "ping out-of-order rate (%)" 0
scalar BusLAN.host[9].pingApp[102] pingRxSeq:count 97
attr interpolationmode none
attr title "ping rx seq, count"
scalar BusLAN.host[9].pingApp[102] pingTxSeq:count 283
attr interpolationmode none
attr title "ping tx seq, count"
scalar BusLAN.host[9].pingApp[102] numOutOfOrderArrivals:last nan
attr interpolationmode none
attr title "ping out-of-order arrivals, last"
scalar BusLAN.host[9].pingApp[102] numLost:last 257
attr interpolationmode none
attr title "pings lost, last"
scalar BusLAN.host[9].pingApp[102] rtt:mean 0.01361983392596
attr interpolationmode none
attr title "ping round-trip time, mean"
attr unit s
scalar BusLAN.host[9].pingApp[103] "Pings sent" 386
scalar BusLAN.host[9].pingApp[103] "ping loss rate (%)" 89.896373056995
scalar BusLAN.host[9].pingApp[103] "ping out-of-order rate (%)" 0
scalar BusLAN.host[9].pingApp[103] pingRxSeq:count 28
attr interpolationmode none
attr title "ping rx seq, count"
scalar BusLAN.host[9].pingApp[103] pingTxSeq:count 291
attr interpolationmode none
attr title "ping tx seq, count"
scalar BusLAN.host[9].pingApp[103] numOutOfOrderArrivals:last nan
attr interpolationmode none
attr title "ping out-of-order arrivals, last"
scalar BusLAN.host[9].pingApp[103] numLost:last 332
attr interpolationmode none
attr title "pings lost, last"
scalar BusLAN.host[9].pingApp[103] rtt:mean 0.012710876317
attr interpolationmode none
attr title "ping round-trip time, mean"
attr unit s
scalar BusLAN.host[9].pingApp[104] "Pings sent" 366
scalar BusLAN.host[9].pingApp[104] "ping loss rate (%)" 89.344262295082
scalar BusLAN.host[9].pingApp[104] "ping out-of-order rate (%)" 0
scalar BusLAN.host[9].pingApp[104] pingRxSeq:count 32
attr interpolationmode none
attr title "ping rx seq, count"
scalar BusLAN.host[9].pingApp[104] pingTxSeq:count 275
attr interpolationmode none
attr title "ping tx seq, count"
scalar BusLAN.host[9].pingApp[104] numOutOfOrderArrivals:last nan
attr interpolationmode none
attr title "ping out-of-order arrivals, last"
scalar BusLAN.host[9].pingApp[104] numLost:last 322
attr interpolationmode none
attr title "pings lost, last"
scalar BusLAN.host[9].pingApp[104] rtt:mean 0.0133985500932
attr interpolationmode none
attr title "ping round-trip time, mean"
attr unit s
scalar BusLAN.host[9].pingApp[105] "Pings sent" 387
scalar BusLAN.host[9].pingApp[105] "ping loss rate (%)" 72.609819121447
scalar BusLAN.host[9].pingApp[105] "ping out-of-order rate (%)" 0
scalar BusLAN.host[9].pingApp[105] pingRxSeq:count 84
attr interpolationmode none
attr title "ping rx seq, count"
scalar BusLAN.host[9].pingApp[105] pingTxSeq:count 297
attr interpolationmode none
attr title "ping tx seq, count"
scalar BusLAN.host[9].pingApp[105] numOutOfOrderArrivals:last nan
attr interpolationmode none
attr title "ping out-of-order arrivals, last"
scalar BusLAN.host[9].pingApp[105] numLost:last 280
attr interpolationmode none
attr title "pings lost, last"
scalar BusLAN.host[9].pingApp[105] rtt:mean 0.012814525957784
attr interpolationmode none
attr title "ping round-trip time, mean"
attr unit s
scalar BusLAN.host[9].pingApp[106] "Pings sent" 380
scalar BusLAN.host[9].pingApp[106] "ping loss rate (%)" 88.157894736842
scalar BusLAN.host[9].pingApp[106] "ping out-of-order rate (%)" 0
scalar BusLAN.host[9].pingApp[106] pingRxSeq:count 33
attr interpolationmode none
attr title "ping rx seq, count"
scalar BusLAN.host[9].pingApp[106] pingTxSeq:count 286
attr interpolationmode none
attr title "ping tx seq, count"
scalar BusLAN.host[9].pingApp[106] numOutOfOrderArrivals:last nan
attr interpolationmode none
attr title "ping out-of-order arrivals, last"
scalar BusLAN.host[9].pingApp[106] numLost:last 324
attr interpolationmode none
attr title "pings lost, last"
scalar BusLAN.host[9].pingApp[106] rtt:mean 0.0132831789805
attr interpolationmode none
attr title "ping round-trip time, mean"
attr unit s
scalar BusLAN.host[9].pingApp[107] "Pings sent" 397
scalar BusLAN.host[9].pingApp[107] "ping loss rate (%)" 88.916876574307
scalar BusLAN.host[9].pingApp[107] "ping out-of-order rate (%)" 0
scalar BusLAN.host[9].pingApp[107] pingRxSeq:count 31
attr interpolationmode none
attr title "ping rx seq, count"
scalar BusLAN.host[9].pingApp[107] pingTxSeq:count 299
attr interpolationmode none
attr title "ping tx seq, count"
scalar BusLAN.host[9].pingApp[107] numOutOfOrderArrivals:last nan
attr interpolationmode none
attr title "ping out-of-order arrivals, last"
scalar BusLAN.host[9].pingApp[107] numLost:last 343
attr interpolationmode none
attr title "pings lost, last"
scalar BusLAN.host[9].pingApp[107] rtt:mean nan
attr interpolationmode none
attr title "ping round-trip time, mean"
attr unit s
scalar BusLAN.host[9].pingApp[108] "Pings sent" 376
scalar BusLAN.host[9].pingApp[108] "ping loss rate (%)" 70.744680851064
scalar BusLAN.host[9].pingApp[108] "ping out-of-order rate (%)" 0
scalar BusLAN.host[9].pingApp[108] pingRxSeq:count 83
attr interpolationmode none
attr title "ping rx seq, count"
scalar BusLAN.host[9].pingApp[108] pingTxSeq:count 286
attr interpolationmode none
attr title "ping tx seq, count"
scalar BusLAN.host[9].pingApp[108] numOutOfOrderArrivals:last nan
attr interpolationmode none
attr title "ping out-of-order arrivals, last"
scalar BusLAN.host[9].pingApp[108] numLost:last 259
attr interpolationmode none
attr title "pings lost, last"
scalar BusLAN.host[9].pingApp[108] rtt:mean 0.013501713415698
attr interpolationmode none
attr title "ping round-trip time, mean"
attr unit s
scalar BusLAN.host[9].pingApp[109] "Pings sent" 388
scalar BusLAN.host[9].pingApp[109] "ping loss rate (%)" 87.371134020619
scalar BusLAN.host[9].pingApp[109] "ping out-of-order rate (%)" 0
scalar BusLAN.host[9].pingApp[109] pingRxSeq:count 37
attr interpolationmode none
attr title "ping rx seq, count"
scalar BusLAN.host[9].pingApp[109] pingTxSeq:count 290
attr interpolationmode none
attr title "ping tx seq, count"
scalar BusLAN.host[9].pingApp[109] numOutOfOrderArrivals:last nan
attr interpolationmode none
attr title "ping out-of-order arrivals, last"
scalar BusLAN.host[9].pingApp[109] numLost:last 325
attr interpolationmode none
attr title "pings lost, last"
scalar BusLAN.host[9].pingApp[109] rtt:mean 0.013258165453
attr interpolationmode none
attr title "ping round-trip time, mean"
attr unit s
scalar BusLAN.host[9].pingApp[110] "Pings sent" 392
scalar BusLAN.host[9].pingApp[110] "ping loss rate (%)" 86.734693877551
scalar BusLAN.host[9].pingApp[110] "ping out-of-order rate (%)" 0
scalar BusLAN.host[9].pingApp[110] pingRxSeq:count 41
attr interpolationmode none
attr title "ping rx seq, count"
scalar BusLAN.host[9].pingApp[110] pingTxSeq:count 299
attr interpolationmode none
attr title "ping tx seq, count"
scalar BusLAN.host[9].pingApp[110] numOutOfOrderArrivals:last nan
attr interpolationmode none
attr title "ping out-of-order arrivals, last"
scalar BusLAN.host[9].pingApp[110] numLost:last 332
attr interpolationmode none
attr title "pings lost, last"
scalar BusLAN.host[9].pingApp[110] rtt:mean 0.014459002619167
attr interpolationmode none
attr title "ping round-trip time, mean"
attr unit s
scalar BusLAN.host[9].pingApp[111] "Pings sent" 391
scalar BusLAN.host[9].pingApp[111] "ping loss rate (%)" 66.496163682864
scalar BusLAN.host[9].pingApp[111] "ping out-of-order rate (%)" 0
scalar BusLAN.host[9].pingApp[111] pingRxSeq:count 104
attr interpolationmode none
attr title "ping rx seq, count"
scalar BusLAN.host[9].pingApp[111] pingTxSeq:count 296
attr interpolationmode none
attr title "ping tx seq, count"
scalar BusLAN.host[9].pingApp[111] numOutOfOrderArrivals:last nan
attr interpolationmode none
attr title "ping out-of-order arrivals, last"
scalar BusLAN.host[9].pingApp[111] numLost:last 259
attr interpolationmode none
attr title "pings lost, last"
scalar BusLAN.host[9].pingApp[111] rtt:mean 0.014047141096965
attr interpolationmode none
attr title "ping round-trip time, mean"
attr unit s
scalar BusLAN.host[9].pingApp[112] "Pings sent" 384
scalar BusLAN.host[9].pingApp[112] "ping loss rate (%)" 69.53125
scalar BusLAN.host[9].pingApp[112] "ping out-of-order rate (%)" 0
scalar BusLAN.host[9].pingApp[112] pingRxSeq:count 85
attr interpolationmode none
attr title "ping rx seq, count"
scalar BusLAN.host[9].pingApp[112] pingTxSeq:count 287
attr interpolationmode none
attr title "ping tx seq, count"
scalar BusLAN.host[9].pingApp[112] numOutOfOrderArrivals:last nan
attr interpolationmode none
attr title "ping out-of-order arrivals, last"
scalar BusLAN.host[9].pingApp[112] numLost:last 260
attr interpolationmode none
attr title "pings lost, last"
scalar BusLAN.host[9].pingApp[112] rtt:mean 0.01305993833423
attr interpolationmode none
attr title "ping round-trip time, mean"
attr unit s
scalar BusLAN.host[9].pingApp[113] "Pings sent" 381
scalar BusLAN.host[9].pingApp[113] "ping loss rate (%)" 70.07874015748
scalar BusLAN.host[9].pingApp[113] "ping out-of-order rate (%)" 0
scalar BusLAN.host[9].pingApp[113] pingRxSeq:count 87
attr interpolationmode none
attr title "ping rx seq, count"
scalar BusLAN.host[9].pingApp[113] pingTxSeq:count 291
attr interpolationmode none
attr title "ping tx seq, count"
scalar BusLAN.host[9].pingApp[113] numOutOfOrderArrivals:last nan
attr interpolationmode none
attr title "ping out-of-order arrivals, last"
scalar BusLAN.host[9].pingApp[113] numLost:last 267
attr interpolationmode none
attr title "pings lost, last"
scalar BusLAN.host[9].pingApp[113] rtt:mean 0.01354661374698
attr interpolationmode none
attr title "ping round-trip time, mean"
attr unit s
scalar BusLAN.host[9].pingApp[114] "Pings sent" 364
scalar BusLAN.host[9].pingApp[114] "ping loss rate (%)" 89.010989010989
scalar BusLAN.host[9].pingApp[114] "ping out-of-order rate (%)" 0
scalar BusLAN.host[9].pingApp[114] pingRxSeq:count 32
attr interpolationmode none
attr title "ping rx seq, count"
scalar BusLAN.host[9].pingApp[114] pingTxSeq:count 280
attr interpolationmode none
attr title "ping tx seq, count"
scalar BusLAN.host[9].pingApp[114] numOutOfOrderArrivals:last nan
attr interpolationmode none
attr title "ping out-of-order arrivals, last"
scalar BusLAN.host[9].pingApp[114] numLost:last 315
attr interpolationmode none
attr title "pings lost, last"
scalar BusLAN.host[9].pingApp[114] rtt:mean 0.012553509672667
attr interpolationmode none
attr title "ping round-trip time, mean"
attr unit s
scalar BusLAN.host[9].pingApp[115] "Pings sent" 380
scalar BusLAN.host[9].pingApp[115] "ping loss rate (%)" 89.473684210526
scalar BusLAN.host[9].pingApp[115] "ping out-of-order rate (%)" 0
scalar BusLAN.host[9].pingApp[115] pingRxSeq:count 32
attr interpolationmode none
attr title "ping rx seq, count"
scalar BusLAN.host[9].pingApp[115] pingTxSeq:count 286
attr interpolationmode none
attr title "ping tx seq, count"
scalar BusLAN.host[9].pingApp[115] numOutOfOrderArrivals:last nan
attr interpolationmode none
attr title "ping out-of-order arrivals, last"
scalar BusLAN.host[9].pingApp[115] numLost:last 332
attr interpolationmode none
attr title "pings lost, last"
scalar BusLAN.host[9].pingApp[115] rtt:mean 0.0142205098415
attr interpolationmode none
attr title "ping round-trip time, mean"
attr unit s
scalar BusLAN.host[9].pingApp[116] "Pings sent" 393
scalar BusLAN.host[9].pingApp[116] "ping loss rate (%)" 68.447837150127
scalar BusLAN.host[9].pingApp[116] "ping out-of-order rate (%)" 0.25445292620865
scalar BusLAN.host[9].pingApp[116] pingRxSeq:count 87
attr interpolationmode none
attr title "ping rx seq, count"
scalar BusLAN.host[9].pingApp[116] pingTxSeq:count 289
attr interpolationmode none
attr title "ping tx seq, count"
scalar BusLAN.host[9].pingApp[116] numOutOfOrderArrivals:last 1
attr interpolationmode none
attr title "ping out-of-order arrivals, last"
scalar BusLAN.host[9].pingApp[116] numLost:last 266
attr interpolationmode none
attr title "pings lost, last"
scalar BusLAN.host[9].pingApp[116] rtt:mean 0.0142243241561
attr interpolationmode none
attr title "ping round-trip time, mean"
attr unit s
scalar BusLAN.host[9].pingApp[117] "Pings sent" 387
scalar BusLAN.host[9].pingApp[117] "ping loss rate (%)" 65.633074935401
scalar BusLAN.host[9].pingApp[117] "ping out-of-order rate (%)" 0
scalar BusLAN.host[9].pingApp[117] pingRxSeq:count 90
attr interpolationmode none
attr title "ping rx seq, count"
scalar BusLAN.host[9].pingApp[117] pingTxSeq:count 283
attr interpolationmode none
attr title "ping tx seq, count"
scalar BusLAN.host[9].pingApp[117] numOutOfOrderArrivals:last nan
attr interpolationmode none
attr title "ping out-of-order arrivals, last"
scalar BusLAN.host[9].pingApp[117] numLost:last 250
attr interpolationmode none
attr title "pings lost, last"
scalar BusLAN.host[9].pingApp[117] rtt:mean 0.013515958037931
attr interpolationmode none
attr title "ping round-trip time, mean"
attr unit s
scalar BusLAN.host[9].pingApp[118] "Pings sent" 405
scalar BusLAN.host[9].pingApp[118] "ping loss rate (%)" 90.617283950617
scalar BusLAN.host[9].pingApp[118] "ping out-of-order rate (%)" 0
scalar BusLAN.host[9].pingApp[118] pingRxSeq:count 25
attr interpolationmode none
attr title "ping rx seq, count"
scalar BusLAN.host[9].pingApp[118] pingTxSeq:count 308
attr interpolationmode none
attr title "ping tx seq, count"
scalar BusLAN.host[9].pingApp[118] numOutOfOrderArrivals:last nan
attr interpolationmode none
attr title "ping out-of-order arrivals, last"
scalar BusLAN.host[9].pingApp[118] numLost:last 344
attr interpolationmode none
attr title "pings lost, last"
scalar BusLAN.host[9].pingApp[118] rtt:mean 0.013512857457333
attr interpolationmode none
attr title "ping round-trip time, mean"
attr unit s
scalar BusLAN.host[9].pingApp[119] "Pings sent" 384
scalar BusLAN.host[9].pingApp[119] "ping loss rate (%)" 71.354166666667
scalar BusLAN.host[9].pingApp[119] "ping out-of-order rate (%)" 0
scalar BusLAN.host[9].pingApp[119] pingRxSeq:count 79
attr interpolationmode none
attr title "ping rx seq, count"
scalar BusLAN.host[9].pingApp[119] pingTxSeq:count 294
attr interpolationmode none
attr title "ping tx seq, count"
scalar BusLAN.host[9].pingApp[119] numOutOfOrderArrivals:last nan
attr interpolationmode none
attr title "ping out-of-order arrivals, last"
scalar BusLAN.host[9].pingApp[119] numLost:last 274
attr interpolationmode none
attr title "pings lost, last"
scalar BusLAN.host[9].pingApp[119] rtt:mean 0.013919335539737
attr interpolationmode none
attr title "ping round-trip time, mean"
attr unit s
scalar BusLAN.host[9].pingApp[120] "Pings sent" 371
scalar BusLAN.host[9].pingApp[120] "ping loss rate (%)" 71.428571428571
scalar BusLAN.host[9].pingApp[120] "ping out-of-order rate (%)" 0
scalar BusLAN.host[9].pingApp[120] pingRxSeq:count 84
attr interpolationmode none
attr title "ping rx seq, count"
scalar BusLAN.host[9].pingApp[120] pingTxSeq:count 285
attr interpolationmode none
attr title "ping tx seq, count"
scalar BusLAN.host[9].pingApp[120] numOutOfOrderArrivals:last nan
attr interpolationmode none
attr title "ping out-of-order arrivals, last"
scalar BusLAN.host[9].pingApp[120] numLost:last 261
attr interpolationmode none
attr title "pings lost, last"
scalar BusLAN.host[9].pingApp[120] rtt:mean 0.013677794717763
attr interpolationmode none
attr title "ping round-trip time, mean"
attr unit s
scalar BusLAN.host[9].pingApp[121] "Pings sent" 369
scalar BusLAN.host[9].pingApp[121] "ping loss rate (%)" 88.346883468835
scalar BusLAN.host[9].pingApp[121] "ping out-of-order rate (%)" 0
scalar BusLAN.host[9].pingApp[121] pingRxSeq:count 37
attr interpolationmode none
attr title "ping rx seq, count"
scalar BusLAN.host[9].pingApp[121] pingTxSeq:count 276
attr interpolationmode none
attr title "ping tx seq, count"
scalar BusLAN.host[9].pingApp[121] numOutOfOrderArrivals:last nan
attr interpolationmode none
attr title "ping out-of-order arrivals, last"
scalar BusLAN.host[9].pingApp[121] numLost:last 319
attr interpolationmode none
attr title "pings lost, last"
scalar BusLAN.host[9].pingApp[121] rtt:mean 0.014450664202
attr interpolationmode none
attr title "ping round-trip time, mean"
attr unit s
scalar BusLAN.host[9].pingApp[122] "Pings sent" 376
scalar BusLAN.host[9].pingApp[122] "ping loss rate (%)" 89.36170212766
scalar BusLAN.host[9].pingApp[122] "ping out-of-order rate (%)" 0
scalar BusLAN.host[9].pingApp[122] pingRxSeq:count 28
attr interpolationmode none
attr title "ping rx seq, count"
scalar BusLAN.host[9].pingApp[122] pingTxSeq:count 288
attr interpolationmode none
attr title "ping tx seq, count"
scalar BusLAN.host[9].pingApp[122] numOutOfOrderArrivals:last nan
attr interpolationmode none
attr title "ping out-of-order arrivals, last"
scalar BusLAN.host[9].pingApp[122] numLost:last 334
attr interpolationmode none
attr title "pings lost, last"
scalar BusLAN.host[9].pingApp[122] rtt:mean 0.012474528561333
attr interpolationmode none
attr title "ping round-trip time, mean"
attr unit s
scalar BusLAN.host[9].pingApp[123] "Pings sent" 398
scalar BusLAN.host[9].pingApp[123] "ping loss rate (%)" 91.206030150754
scalar BusLAN.host[9].pingApp[123] "ping out-of-order rate (%)" 0
scalar BusLAN.host[9].pingApp[123] pingRxSeq:count 24
attr interpolationmode none
attr title "ping rx seq, count"
scalar BusLAN.host[9].pingApp[123] pingTxSeq:count 311
attr interpolationmode none
attr title "ping tx seq, count"
scalar BusLAN.host[9].pingApp[123] numOutOfOrderArrivals:last nan
attr interpolationmode none
attr title "ping out-of-order arrivals, last"
scalar BusLAN.host[9].pingApp[123] numLost:last 358
attr interpolationmode none
attr title "pings lost, last"
scalar BusLAN.host[9].pingApp[123] rtt:mean 0.0135612319582
attr interpolationmode none
attr title "ping round-trip time, mean"
attr unit s
scalar BusLAN.host[9].pingApp[124] "Pings sent" 380
scalar BusLAN.host[9].pingApp[124] "ping loss rate (%)" 90.526315789474
scalar BusLAN.host[9].pingApp[124] "ping out-of-order rate (%)" 0
scalar BusLAN.host[9].pingApp[124] pingRxSeq:count 31
attr interpolationmode none
attr title "ping rx seq, count"
scalar BusLAN.host[9].pingApp[124] pingTxSeq:count 287
attr interpolationmode none
attr title "ping tx seq, count"
scalar BusLAN.host[9].pingApp[124] numOutOfOrderArrivals:last nan
attr interpolationmode none
attr title "ping out-of-order arrivals, last"
scalar BusLAN.host[9].pingApp[124] numLost:last 328
attr interpolationmode none
attr title "pings lost, last"
scalar BusLAN.host[9].pingApp[124] rtt:mean 0.014106435629
attr interpolationmode none
attr title "ping round-trip time, mean"
attr unit s
scalar BusLAN.host[9].pingApp[125] "Pings sent" 392
scalar BusLAN.host[9].pingApp[125] "ping loss rate (%)" 87.755102040816
scalar BusLAN.host[9].pingApp[125] "ping out-of-order rate (%)" 0
scalar BusLAN.host[9].pingApp[125] pingRxSeq:count 38
attr interpolationmode none
attr title "ping rx seq, count"
scalar BusLAN.host[9].pingApp[125] pingTxSeq:count 292
attr interpolationmode none
attr title "ping tx seq, count"
scalar BusLAN.host[9].pingApp[125] numOutOfOrderArrivals:last nan
attr interpolationmode none
attr title "ping out-of-order arrivals, last"
scalar BusLAN.host[9].pingApp[125] numLost:last 340
attr interpolationmode none
attr title "pings lost, last"
scalar BusLAN.host[9].pingApp[125] rtt:mean 0.012846841218125
attr interpolationmode none
attr title "ping round-trip time, mean"
attr unit s
scalar BusLAN.bus "simulated time" 20
scalar BusLAN.bus "messages handled" 0
scalar BusLAN.bus messages/sec 0

