version 2
run BusLAN10-sendinterval-2-20180110-20:26:00-2160
attr configname BusLAN10-sendinterval
attr datetime 20180110-20:26:00
attr experiment BusLAN10-sendinterval
attr inifile BusLAN.ini
attr iterationvars $pa=126
attr iterationvarsf pa=126-
attr measurement $pa=126
attr network BusLAN
attr processid 2160
attr repetition 0
attr replication #0
attr resultdir results
attr runnumber 2
attr seedset 2
itervar pa 126
param *.numHosts 10
param **.datarate 10Mbps
param **.host[*].pingApp[*].sendInterval "truncnormal(100ms, 50ms)"
param **.host[*].pingApp[*].packetSize "truncnormal(1024B, 512B)"
param **.queueType "\"DropTailQueue\""
param **.frameCapacity 10
param **.mtu 1024B
param **.host[*].numPingApps 126
param **.host[*].pingApp[*].typename "\"PingApp\""
param **.host[*].pingApp[*].count 1
param **.host[*].pingApp[*].startTime "truncnormal(200ms, 100ms)"
param **.host[*].pingApp[*].destAddr "\"*\""

scalar BusLAN.host[0].networkLayer.arp sentReply:count 0
attr title "ARP replies sent, count"
scalar BusLAN.host[0].networkLayer.arp sentReq:count 0
attr title "ARP request sent, count"
scalar BusLAN.host[0].networkLayer.arp failedARPResolution:count 0
attr title "ARP failed resolutions, count"
scalar BusLAN.host[0].networkLayer.arp completedARPResolution:count 0
attr title "ARP completed resolutions, count"
scalar BusLAN.host[0].networkLayer.arp initiatedARPResolution:count 0
attr title "ARP initiated resolutions, count"
scalar BusLAN.host[0].lo0.lo droppedPkBitError:count 0
attr interpolationmode none
attr source dropPkBitError
attr title "packets dropped/bit error, count"
scalar BusLAN.host[0].lo0.lo droppedPkBitError:sum(packetBytes) 0
attr interpolationmode none
attr source dropPkBitError
attr title "packets dropped/bit error, sum(packetBytes)"
scalar BusLAN.host[0].lo0.lo rcvdPkFromHL:count 5826
attr interpolationmode none
attr source packetReceivedFromUpper
attr title "packets received from higher layer, count"
scalar BusLAN.host[0].lo0.lo rcvdPkFromHL:sum(packetBytes) 4001968
attr interpolationmode none
attr source packetReceivedFromUpper
attr title "packets received from higher layer, sum(packetBytes)"
scalar BusLAN.host[0].lo0.lo passedUpPk:count 5826
attr interpolationmode none
attr source packetSentToUpper
attr title "packets passed to higher layer, count"
scalar BusLAN.host[0].lo0.lo passedUpPk:sum(packetBytes) 4001968
attr interpolationmode none
attr source packetSentToUpper
attr title "packets passed to higher layer, sum(packetBytes)"
scalar BusLAN.host[0].eth[0].queue.pauseQueue queueLength:max nan
attr interpolationmode sample-hold
attr title "queue length, max"
scalar BusLAN.host[0].eth[0].queue.pauseQueue queueLength:timeavg nan
attr interpolationmode sample-hold
attr title "queue length, timeavg"
statistic BusLAN.host[0].eth[0].queue.pauseQueue queueingTime:histogram
field count 0
field mean nan
field stddev nan
field min nan
field max nan
field sum 0
field sqrsum 0
attr interpolationmode none
attr title "queueing time, histogram"
bin	-inf	0
bin	-0.5	0
bin	-0.46666666666667	0
bin	-0.43333333333333	0
bin	-0.4	0
bin	-0.36666666666667	0
bin	-0.33333333333333	0
bin	-0.3	0
bin	-0.26666666666667	0
bin	-0.23333333333333	0
bin	-0.2	0
bin	-0.16666666666667	0
bin	-0.13333333333333	0
bin	-0.1	0
bin	-0.066666666666667	0
bin	-0.033333333333333	0
bin	0	0
bin	0.033333333333333	0
bin	0.066666666666667	0
bin	0.1	0
bin	0.13333333333333	0
bin	0.16666666666667	0
bin	0.2	0
bin	0.23333333333333	0
bin	0.26666666666667	0
bin	0.3	0
bin	0.33333333333333	0
bin	0.36666666666667	0
bin	0.4	0
bin	0.43333333333333	0
bin	0.46666666666667	0
bin	0.5	0
scalar BusLAN.host[0].eth[0].queue.pauseQueue dropPk:count 0
attr interpolationmode none
attr source dropPkByQueue
attr title "dropped packets, count"
scalar BusLAN.host[0].eth[0].queue.pauseQueue dropPk:sum(packetBytes) 0
attr interpolationmode none
attr source dropPkByQueue
attr title "dropped packets, sum(packetBytes)"
scalar BusLAN.host[0].eth[0].queue.pauseQueue rcvdPk:count 0
attr interpolationmode none
attr title "received packets, count"
scalar BusLAN.host[0].eth[0].queue.pauseQueue rcvdPk:sum(packetBytes) 0
attr interpolationmode none
attr title "received packets, sum(packetBytes)"
scalar BusLAN.host[0].eth[0].queue.dataQueue queueLength:max 10
attr interpolationmode sample-hold
attr title "queue length, max"
scalar BusLAN.host[0].eth[0].queue.dataQueue queueLength:timeavg 8.4308791205612
attr interpolationmode sample-hold
attr title "queue length, timeavg"
statistic BusLAN.host[0].eth[0].queue.dataQueue queueingTime:histogram
field count 23963
field mean 0.005277871282326
field stddev 0.0011953399567633
field min 0
field max 0.008309636386
field sum 126.47362953838
field sqrsum 0.70174934417651
attr interpolationmode none
attr title "queueing time, histogram"
bin	-inf	103
bin	0.0008688060225	56
bin	0.0011714004743	64
bin	0.0014739949261	106
bin	0.0017765893779	121
bin	0.0020791838297	176
bin	0.0023817782815	237
bin	0.0026843727333	301
bin	0.0029869671851	420
bin	0.0032895616369	552
bin	0.0035921560887	752
bin	0.0038947505405	978
bin	0.0041973449923	1333
bin	0.0044999394441	1660
bin	0.0048025338959	2079
bin	0.0051051283477	2555
bin	0.0054077227995	2815
bin	0.0057103172513	2860
bin	0.0060129117031	2565
bin	0.0063155061549	1858
bin	0.0066181006067	1264
bin	0.0069206950585	693
bin	0.0072232895103	287
bin	0.0075258839621	94
bin	0.0078284784139	31
bin	0.0081310728657	3
bin	0.0084336673175	0
bin	0.0087362617693	0
bin	0.0090388562211	0
bin	0.0093414506729	0
bin	0.0096440451247	0
bin	0.0099466395765	0
scalar BusLAN.host[0].eth[0].queue.dataQueue dropPk:count 14944
attr interpolationmode none
attr source dropPkByQueue
attr title "dropped packets, count"
scalar BusLAN.host[0].eth[0].queue.dataQueue dropPk:sum(packetBytes) 9337339
attr interpolationmode none
attr source dropPkByQueue
attr title "dropped packets, sum(packetBytes)"
scalar BusLAN.host[0].eth[0].queue.dataQueue rcvdPk:count 38906
attr interpolationmode none
attr title "received packets, count"
scalar BusLAN.host[0].eth[0].queue.dataQueue rcvdPk:sum(packetBytes) 27588483
attr interpolationmode none
attr title "received packets, sum(packetBytes)"
scalar BusLAN.host[0].eth[0].mac "simulated time" 20
scalar BusLAN.host[0].eth[0].mac full-duplex 1
scalar BusLAN.host[0].eth[0].mac "frames/sec sent" 1597.8
scalar BusLAN.host[0].eth[0].mac "frames/sec rcvd" 1659.05
scalar BusLAN.host[0].eth[0].mac "bits/sec sent" 9727535.2
scalar BusLAN.host[0].eth[0].mac "bits/sec rcvd" 10098737.6
scalar BusLAN.host[0].eth[0].mac "rx channel idle (%)" -780.371788
scalar BusLAN.host[0].eth[0].mac "rx channel utilization (%)" 880.371788
scalar BusLAN.host[0].eth[0].mac rxPkFromHL:count 23963
attr interpolationmode none
attr source rxPkFromHL
attr title "packet bytes from higher layer, count"
scalar BusLAN.host[0].eth[0].mac rxPkFromHL:sum(packetBytes) 18250806
attr interpolationmode none
attr source rxPkFromHL
attr title "packet bytes from higher layer, sum(packetBytes)"
scalar BusLAN.host[0].eth[0].mac rxPausePkUnits:count 0
attr interpolationmode none
attr title "pause units received, count"
scalar BusLAN.host[0].eth[0].mac rxPausePkUnits:sum 0
attr interpolationmode none
attr title "pause units received, sum"
scalar BusLAN.host[0].eth[0].mac txPausePkUnits:count 0
attr interpolationmode none
attr title "pause units sent, count"
scalar BusLAN.host[0].eth[0].mac txPausePkUnits:sum 0
attr interpolationmode none
attr title "pause units sent, sum"
scalar BusLAN.host[0].eth[0].mac txPk:count 23963
attr interpolationmode none
attr source txPk
attr title "packets transmitted, count"
scalar BusLAN.host[0].eth[0].mac txPk:sum(packetBytes) 18251622
attr interpolationmode none
attr source txPk
attr title "packets transmitted, sum(packetBytes)"
scalar BusLAN.host[0].eth[0].mac droppedPkNotForUs:count 189268
attr interpolationmode none
attr source dropPkNotForUs
attr title "packets dropped/not for us, count"
scalar BusLAN.host[0].eth[0].mac droppedPkNotForUs:sum(packetBytes) 145951110
attr interpolationmode none
attr source dropPkNotForUs
attr title "packets dropped/not for us, sum(packetBytes)"
scalar BusLAN.host[0].eth[0].mac droppedPkBitError:count 0
attr interpolationmode none
attr source dropPkBitError
attr title "packets dropped/bit error, count"
scalar BusLAN.host[0].eth[0].mac droppedPkBitError:sum(packetBytes) 0
attr interpolationmode none
attr source dropPkBitError
attr title "packets dropped/bit error, sum(packetBytes)"
scalar BusLAN.host[0].eth[0].mac droppedPkIfaceDown:count 0
attr interpolationmode none
attr source dropPkIfaceDown
attr title "packets dropped/interface down, count"
scalar BusLAN.host[0].eth[0].mac droppedPkIfaceDown:sum(packetBytes) 0
attr interpolationmode none
attr source dropPkIfaceDown
attr title "packets dropped/interface down, sum(packetBytes)"
scalar BusLAN.host[0].eth[0].mac rxPkOk:count 24041
attr interpolationmode none
attr source rxPkOk
attr title "packets received OK, count"
scalar BusLAN.host[0].eth[0].mac rxPkOk:sum(packetBytes) 18372333
attr interpolationmode none
attr source rxPkOk
attr title "packets received OK, sum(packetBytes)"
scalar BusLAN.host[0].eth[0].mac passedUpPk:count 24041
attr interpolationmode none
attr source packetSentToUpper
attr title "packets passed to higher layer, count"
scalar BusLAN.host[0].eth[0].mac passedUpPk:sum(packetBytes) 18372333
attr interpolationmode none
attr source packetSentToUpper
attr title "packets passed to higher layer, sum(packetBytes)"
scalar BusLAN.host[0].eth[0].encap pauseSent:count 0
attr title "pause sent, count"
scalar BusLAN.host[0].eth[0].encap pauseSent:sum 0
attr title "pause sent, sum"
scalar BusLAN.host[0].eth[0].encap decapPk:count 24041
attr interpolationmode none
attr source decapPk
attr title "packets decapsulated, count"
scalar BusLAN.host[0].eth[0].encap decapPk:sum(packetBytes) 17936825
attr interpolationmode none
attr source decapPk
attr title "packets decapsulated, sum(packetBytes)"
scalar BusLAN.host[0].eth[0].encap encapPk:count 38906
attr interpolationmode none
attr source encapPk
attr title "packets encapsulated, count"
scalar BusLAN.host[0].eth[0].encap encapPk:sum(packetBytes) 26879561
attr interpolationmode none
attr source encapPk
attr title "packets encapsulated, sum(packetBytes)"
scalar BusLAN.host[0].pingApp[0] "Pings sent" 191
scalar BusLAN.host[0].pingApp[0] "ping loss rate (%)" 76.439790575916
scalar BusLAN.host[0].pingApp[0] "ping out-of-order rate (%)" 0
scalar BusLAN.host[0].pingApp[0] pingRxSeq:count 31
attr interpolationmode none
attr title "ping rx seq, count"
scalar BusLAN.host[0].pingApp[0] pingTxSeq:count 146
attr interpolationmode none
attr title "ping tx seq, count"
scalar BusLAN.host[0].pingApp[0] numOutOfOrderArrivals:last nan
attr interpolationmode none
attr title "ping out-of-order arrivals, last"
scalar BusLAN.host[0].pingApp[0] numLost:last 143
attr interpolationmode none
attr title "pings lost, last"
scalar BusLAN.host[0].pingApp[0] rtt:mean 0.011951358827348
attr interpolationmode none
attr title "ping round-trip time, mean"
attr unit s
scalar BusLAN.host[0].pingApp[1] "Pings sent" 195
scalar BusLAN.host[0].pingApp[1] "ping loss rate (%)" 73.333333333333
scalar BusLAN.host[0].pingApp[1] "ping out-of-order rate (%)" 0
scalar BusLAN.host[0].pingApp[1] pingRxSeq:count 39
attr interpolationmode none
attr title "ping rx seq, count"
scalar BusLAN.host[0].pingApp[1] pingTxSeq:count 144
attr interpolationmode none
attr title "ping tx seq, count"
scalar BusLAN.host[0].pingApp[1] numOutOfOrderArrivals:last nan
attr interpolationmode none
attr title "ping out-of-order arrivals, last"
scalar BusLAN.host[0].pingApp[1] numLost:last 139
attr interpolationmode none
attr title "pings lost, last"
scalar BusLAN.host[0].pingApp[1] rtt:mean 0.011089976250765
attr interpolationmode none
attr title "ping round-trip time, mean"
attr unit s
scalar BusLAN.host[0].pingApp[2] "Pings sent" 194
scalar BusLAN.host[0].pingApp[2] "ping loss rate (%)" 45.360824742268
scalar BusLAN.host[0].pingApp[2] "ping out-of-order rate (%)" 0
scalar BusLAN.host[0].pingApp[2] pingRxSeq:count 78
attr interpolationmode none
attr title "ping rx seq, count"
scalar BusLAN.host[0].pingApp[2] pingTxSeq:count 145
attr interpolationmode none
attr title "ping tx seq, count"
scalar BusLAN.host[0].pingApp[2] numOutOfOrderArrivals:last nan
attr interpolationmode none
attr title "ping out-of-order arrivals, last"
scalar BusLAN.host[0].pingApp[2] numLost:last 86
attr interpolationmode none
attr title "pings lost, last"
scalar BusLAN.host[0].pingApp[2] rtt:mean 0.011510431510309
attr interpolationmode none
attr title "ping round-trip time, mean"
attr unit s
scalar BusLAN.host[0].pingApp[3] "Pings sent" 182
scalar BusLAN.host[0].pingApp[3] "ping loss rate (%)" 41.758241758242
scalar BusLAN.host[0].pingApp[3] "ping out-of-order rate (%)" 0
scalar BusLAN.host[0].pingApp[3] pingRxSeq:count 85
attr interpolationmode none
attr title "ping rx seq, count"
scalar BusLAN.host[0].pingApp[3] pingTxSeq:count 140
attr interpolationmode none
attr title "ping tx seq, count"
scalar BusLAN.host[0].pingApp[3] numOutOfOrderArrivals:last nan
attr interpolationmode none
attr title "ping out-of-order arrivals, last"
scalar BusLAN.host[0].pingApp[3] numLost:last 76
attr interpolationmode none
attr title "pings lost, last"
scalar BusLAN.host[0].pingApp[3] rtt:mean 0.012127584218479
attr interpolationmode none
attr title "ping round-trip time, mean"
attr unit s
scalar BusLAN.host[0].pingApp[4] "Pings sent" 199
scalar BusLAN.host[0].pingApp[4] "ping loss rate (%)" 47.236180904523
scalar BusLAN.host[0].pingApp[4] "ping out-of-order rate (%)" 0
scalar BusLAN.host[0].pingApp[4] pingRxSeq:count 79
attr interpolationmode none
attr title "ping rx seq, count"
scalar BusLAN.host[0].pingApp[4] pingTxSeq:count 155
attr interpolationmode none
attr title "ping tx seq, count"
scalar BusLAN.host[0].pingApp[4] numOutOfOrderArrivals:last nan
attr interpolationmode none
attr title "ping out-of-order arrivals, last"
scalar BusLAN.host[0].pingApp[4] numLost:last 93
attr interpolationmode none
attr title "pings lost, last"
scalar BusLAN.host[0].pingApp[4] rtt:mean 0.011315229879224
attr interpolationmode none
attr title "ping round-trip time, mean"
attr unit s
scalar BusLAN.host[0].pingApp[5] "Pings sent" 206
scalar BusLAN.host[0].pingApp[5] "ping loss rate (%)" 74.271844660194
scalar BusLAN.host[0].pingApp[5] "ping out-of-order rate (%)" 0
scalar BusLAN.host[0].pingApp[5] pingRxSeq:count 36
attr interpolationmode none
attr title "ping rx seq, count"
scalar BusLAN.host[0].pingApp[5] pingTxSeq:count 158
attr interpolationmode none
attr title "ping tx seq, count"
scalar BusLAN.host[0].pingApp[5] numOutOfOrderArrivals:last nan
attr interpolationmode none
attr title "ping out-of-order arrivals, last"
scalar BusLAN.host[0].pingApp[5] numLost:last 153
attr interpolationmode none
attr title "pings lost, last"
scalar BusLAN.host[0].pingApp[5] rtt:mean 0.011686526893619
attr interpolationmode none
attr title "ping round-trip time, mean"
attr unit s
scalar BusLAN.host[0].pingApp[6] "Pings sent" 181
scalar BusLAN.host[0].pingApp[6] "ping loss rate (%)" 49.723756906077
scalar BusLAN.host[0].pingApp[6] "ping out-of-order rate (%)" 0
scalar BusLAN.host[0].pingApp[6] pingRxSeq:count 68
attr interpolationmode none
attr title "ping rx seq, count"
scalar BusLAN.host[0].pingApp[6] pingTxSeq:count 136
attr interpolationmode none
attr title "ping tx seq, count"
scalar BusLAN.host[0].pingApp[6] numOutOfOrderArrivals:last nan
attr interpolationmode none
attr title "ping out-of-order arrivals, last"
scalar BusLAN.host[0].pingApp[6] numLost:last 86
attr interpolationmode none
attr title "pings lost, last"
scalar BusLAN.host[0].pingApp[6] rtt:mean 0.011550659559509
attr interpolationmode none
attr title "ping round-trip time, mean"
attr unit s
scalar BusLAN.host[0].pingApp[7] "Pings sent" 189
scalar BusLAN.host[0].pingApp[7] "ping loss rate (%)" 43.386243386243
scalar BusLAN.host[0].pingApp[7] "ping out-of-order rate (%)" 0
scalar BusLAN.host[0].pingApp[7] pingRxSeq:count 81
attr interpolationmode none
attr title "ping rx seq, count"
scalar BusLAN.host[0].pingApp[7] pingTxSeq:count 142
attr interpolationmode none
attr title "ping tx seq, count"
scalar BusLAN.host[0].pingApp[7] numOutOfOrderArrivals:last nan
attr interpolationmode none
attr title "ping out-of-order arrivals, last"
scalar BusLAN.host[0].pingApp[7] numLost:last 80
attr interpolationmode none
attr title "pings lost, last"
scalar BusLAN.host[0].pingApp[7] rtt:mean 0.012061165324324
attr interpolationmode none
attr title "ping round-trip time, mean"
attr unit s
scalar BusLAN.host[0].pingApp[8] "Pings sent" 199
scalar BusLAN.host[0].pingApp[8] "ping loss rate (%)" 48.743718592965
scalar BusLAN.host[0].pingApp[8] "ping out-of-order rate (%)" 0
scalar BusLAN.host[0].pingApp[8] pingRxSeq:count 76
attr interpolationmode none
attr title "ping rx seq, count"
scalar BusLAN.host[0].pingApp[8] pingTxSeq:count 151
attr interpolationmode none
attr title "ping tx seq, count"
scalar BusLAN.host[0].pingApp[8] numOutOfOrderArrivals:last nan
attr interpolationmode none
attr title "ping out-of-order arrivals, last"
scalar BusLAN.host[0].pingApp[8] numLost:last 97
attr interpolationmode none
attr title "pings lost, last"
scalar BusLAN.host[0].pingApp[8] rtt:mean 0.010650486937369
attr interpolationmode none
attr title "ping round-trip time, mean"
attr unit s
scalar BusLAN.host[0].pingApp[9] "Pings sent" 197
scalar BusLAN.host[0].pingApp[9] "ping loss rate (%)" 75.126903553299
scalar BusLAN.host[0].pingApp[9] "ping out-of-order rate (%)" 0
scalar BusLAN.host[0].pingApp[9] pingRxSeq:count 37
attr interpolationmode none
attr title "ping rx seq, count"
scalar BusLAN.host[0].pingApp[9] pingTxSeq:count 147
attr interpolationmode none
attr title "ping tx seq, count"
scalar BusLAN.host[0].pingApp[9] numOutOfOrderArrivals:last nan
attr interpolationmode none
attr title "ping out-of-order arrivals, last"
scalar BusLAN.host[0].pingApp[9] numLost:last 145
attr interpolationmode none
attr title "pings lost, last"
scalar BusLAN.host[0].pingApp[9] rtt:mean 0.011975366379636
attr interpolationmode none
attr title "ping round-trip time, mean"
attr unit s
scalar BusLAN.host[0].pingApp[10] "Pings sent" 190
scalar BusLAN.host[0].pingApp[10] "ping loss rate (%)" 43.157894736842
scalar BusLAN.host[0].pingApp[10] "ping out-of-order rate (%)" 0
scalar BusLAN.host[0].pingApp[10] pingRxSeq:count 83
attr interpolationmode none
attr title "ping rx seq, count"
scalar BusLAN.host[0].pingApp[10] pingTxSeq:count 142
attr interpolationmode none
attr title "ping tx seq, count"
scalar BusLAN.host[0].pingApp[10] numOutOfOrderArrivals:last nan
attr interpolationmode none
attr title "ping out-of-order arrivals, last"
scalar BusLAN.host[0].pingApp[10] numLost:last 81
attr interpolationmode none
attr title "pings lost, last"
scalar BusLAN.host[0].pingApp[10] rtt:mean 0.011966286639739
attr interpolationmode none
attr title "ping round-trip time, mean"
attr unit s
scalar BusLAN.host[0].pingApp[11] "Pings sent" 190
scalar BusLAN.host[0].pingApp[11] "ping loss rate (%)" 74.736842105263
scalar BusLAN.host[0].pingApp[11] "ping out-of-order rate (%)" 0
scalar BusLAN.host[0].pingApp[11] pingRxSeq:count 35
attr interpolationmode none
attr title "ping rx seq, count"
scalar BusLAN.host[0].pingApp[11] pingTxSeq:count 145
attr interpolationmode none
attr title "ping tx seq, count"
scalar BusLAN.host[0].pingApp[11] numOutOfOrderArrivals:last nan
attr interpolationmode none
attr title "ping out-of-order arrivals, last"
scalar BusLAN.host[0].pingApp[11] numLost:last 131
attr interpolationmode none
attr title "pings lost, last"
scalar BusLAN.host[0].pingApp[11] rtt:mean 0.0118745038987
attr interpolationmode none
attr title "ping round-trip time, mean"
attr unit s
scalar BusLAN.host[0].pingApp[12] "Pings sent" 195
scalar BusLAN.host[0].pingApp[12] "ping loss rate (%)" 41.538461538462
scalar BusLAN.host[0].pingApp[12] "ping out-of-order rate (%)" 0
scalar BusLAN.host[0].pingApp[12] pingRxSeq:count 82
attr interpolationmode none
attr title "ping rx seq, count"
scalar BusLAN.host[0].pingApp[12] pingTxSeq:count 147
attr interpolationmode none
attr title "ping tx seq, count"
scalar BusLAN.host[0].pingApp[12] numOutOfOrderArrivals:last nan
attr interpolationmode none
attr title "ping out-of-order arrivals, last"
scalar BusLAN.host[0].pingApp[12] numLost:last 81
attr interpolationmode none
attr title "pings lost, last"
scalar BusLAN.host[0].pingApp[12] rtt:mean 0.011962111033925
attr interpolationmode none
attr title "ping round-trip time, mean"
attr unit s
scalar BusLAN.host[0].pingApp[13] "Pings sent" 199
scalar BusLAN.host[0].pingApp[13] "ping loss rate (%)" 81.407035175879
scalar BusLAN.host[0].pingApp[13] "ping out-of-order rate (%)" 0
scalar BusLAN.host[0].pingApp[13] pingRxSeq:count 29
attr interpolationmode none
attr title "ping rx seq, count"
scalar BusLAN.host[0].pingApp[13] pingTxSeq:count 146
attr interpolationmode none
attr title "ping tx seq, count"
scalar BusLAN.host[0].pingApp[13] numOutOfOrderArrivals:last nan
attr interpolationmode none
attr title "ping out-of-order arrivals, last"
scalar BusLAN.host[0].pingApp[13] numLost:last 155
attr interpolationmode none
attr title "pings lost, last"
scalar BusLAN.host[0].pingApp[13] rtt:mean 0.0107716349315
attr interpolationmode none
attr title "ping round-trip time, mean"
attr unit s
scalar BusLAN.host[0].pingApp[14] "Pings sent" 192
scalar BusLAN.host[0].pingApp[14] "ping loss rate (%)" 51.5625
scalar BusLAN.host[0].pingApp[14] "ping out-of-order rate (%)" 0
scalar BusLAN.host[0].pingApp[14] pingRxSeq:count 71
attr interpolationmode none
attr title "ping rx seq, count"
scalar BusLAN.host[0].pingApp[14] pingTxSeq:count 148
attr interpolationmode none
attr title "ping tx seq, count"
scalar BusLAN.host[0].pingApp[14] numOutOfOrderArrivals:last nan
attr interpolationmode none
attr title "ping out-of-order arrivals, last"
scalar BusLAN.host[0].pingApp[14] numLost:last 98
attr interpolationmode none
attr title "pings lost, last"
scalar BusLAN.host[0].pingApp[14] rtt:mean 0.011778921436259
attr interpolationmode none
attr title "ping round-trip time, mean"
attr unit s
scalar BusLAN.host[0].pingApp[15] "Pings sent" 190
scalar BusLAN.host[0].pingApp[15] "ping loss rate (%)" 44.210526315789
scalar BusLAN.host[0].pingApp[15] "ping out-of-order rate (%)" 0
scalar BusLAN.host[0].pingApp[15] pingRxSeq:count 79
attr interpolationmode none
attr title "ping rx seq, count"
scalar BusLAN.host[0].pingApp[15] pingTxSeq:count 146
attr interpolationmode none
attr title "ping tx seq, count"
scalar BusLAN.host[0].pingApp[15] numOutOfOrderArrivals:last nan
attr interpolationmode none
attr title "ping out-of-order arrivals, last"
scalar BusLAN.host[0].pingApp[15] numLost:last 80
attr interpolationmode none
attr title "pings lost, last"
scalar BusLAN.host[0].pingApp[15] rtt:mean 0.011577476238418
attr interpolationmode none
attr title "ping round-trip time, mean"
attr unit s
scalar BusLAN.host[0].pingApp[16] "Pings sent" 196
scalar BusLAN.host[0].pingApp[16] "ping loss rate (%)" 46.428571428571
scalar BusLAN.host[0].pingApp[16] "ping out-of-order rate (%)" 0
scalar BusLAN.host[0].pingApp[16] pingRxSeq:count 77
attr interpolationmode none
attr title "ping rx seq, count"
scalar BusLAN.host[0].pingApp[16] pingTxSeq:count 145
attr interpolationmode none
attr title "ping tx seq, count"
scalar BusLAN.host[0].pingApp[16] numOutOfOrderArrivals:last nan
attr interpolationmode none
attr title "ping out-of-order arrivals, last"
scalar BusLAN.host[0].pingApp[16] numLost:last 90
attr interpolationmode none
attr title "pings lost, last"
scalar BusLAN.host[0].pingApp[16] rtt:mean 0.011606491896725
attr interpolationmode none
attr title "ping round-trip time, mean"
attr unit s
scalar BusLAN.host[0].pingApp[17] "Pings sent" 186
scalar BusLAN.host[0].pingApp[17] "ping loss rate (%)" 42.47311827957
scalar BusLAN.host[0].pingApp[17] "ping out-of-order rate (%)" 0
scalar BusLAN.host[0].pingApp[17] pingRxSeq:count 77
attr interpolationmode none
attr title "ping rx seq, count"
scalar BusLAN.host[0].pingApp[17] pingTxSeq:count 139
attr interpolationmode none
attr title "ping tx seq, count"
scalar BusLAN.host[0].pingApp[17] numOutOfOrderArrivals:last nan
attr interpolationmode none
attr title "ping out-of-order arrivals, last"
scalar BusLAN.host[0].pingApp[17] numLost:last 79
attr interpolationmode none
attr title "pings lost, last"
scalar BusLAN.host[0].pingApp[17] rtt:mean 0.011918979029259
attr interpolationmode none
attr title "ping round-trip time, mean"
attr unit s
scalar BusLAN.host[0].pingApp[18] "Pings sent" 194
scalar BusLAN.host[0].pingApp[18] "ping loss rate (%)" 74.742268041237
scalar BusLAN.host[0].pingApp[18] "ping out-of-order rate (%)" 0
scalar BusLAN.host[0].pingApp[18] pingRxSeq:count 38
attr interpolationmode none
attr title "ping rx seq, count"
scalar BusLAN.host[0].pingApp[18] pingTxSeq:count 150
attr interpolationmode none
attr title "ping tx seq, count"
scalar BusLAN.host[0].pingApp[18] numOutOfOrderArrivals:last nan
attr interpolationmode none
attr title "ping out-of-order arrivals, last"
scalar BusLAN.host[0].pingApp[18] numLost:last 142
attr interpolationmode none
attr title "pings lost, last"
scalar BusLAN.host[0].pingApp[18] rtt:mean 0.012566955831565
attr interpolationmode none
attr title "ping round-trip time, mean"
attr unit s
scalar BusLAN.host[0].pingApp[19] "Pings sent" 191
scalar BusLAN.host[0].pingApp[19] "ping loss rate (%)" 79.057591623037
scalar BusLAN.host[0].pingApp[19] "ping out-of-order rate (%)" 0
scalar BusLAN.host[0].pingApp[19] pingRxSeq:count 31
attr interpolationmode none
attr title "ping rx seq, count"
scalar BusLAN.host[0].pingApp[19] pingTxSeq:count 149
attr interpolationmode none
attr title "ping tx seq, count"
scalar BusLAN.host[0].pingApp[19] numOutOfOrderArrivals:last nan
attr interpolationmode none
attr title "ping out-of-order arrivals, last"
scalar BusLAN.host[0].pingApp[19] numLost:last 147
attr interpolationmode none
attr title "pings lost, last"
scalar BusLAN.host[0].pingApp[19] rtt:mean 0.010910730873895
attr interpolationmode none
attr title "ping round-trip time, mean"
attr unit s
scalar BusLAN.host[0].pingApp[20] "Pings sent" 193
scalar BusLAN.host[0].pingApp[20] "ping loss rate (%)" 70.984455958549
scalar BusLAN.host[0].pingApp[20] "ping out-of-order rate (%)" 0
scalar BusLAN.host[0].pingApp[20] pingRxSeq:count 39
attr interpolationmode none
attr title "ping rx seq, count"
scalar BusLAN.host[0].pingApp[20] pingTxSeq:count 147
attr interpolationmode none
attr title "ping tx seq, count"
scalar BusLAN.host[0].pingApp[20] numOutOfOrderArrivals:last nan
attr interpolationmode none
attr title "ping out-of-order arrivals, last"
scalar BusLAN.host[0].pingApp[20] numLost:last 137
attr interpolationmode none
attr title "pings lost, last"
scalar BusLAN.host[0].pingApp[20] rtt:mean 0.011565236090944
attr interpolationmode none
attr title "ping round-trip time, mean"
attr unit s
scalar BusLAN.host[0].pingApp[21] "Pings sent" 189
scalar BusLAN.host[0].pingApp[21] "ping loss rate (%)" 45.502645502645
scalar BusLAN.host[0].pingApp[21] "ping out-of-order rate (%)" 0
scalar BusLAN.host[0].pingApp[21] pingRxSeq:count 71
attr interpolationmode none
attr title "ping rx seq, count"
scalar BusLAN.host[0].pingApp[21] pingTxSeq:count 142
attr interpolationmode none
attr title "ping tx seq, count"
scalar BusLAN.host[0].pingApp[21] numOutOfOrderArrivals:last nan
attr interpolationmode none
attr title "ping out-of-order arrivals, last"
scalar BusLAN.host[0].pingApp[21] numLost:last 84
attr interpolationmode none
attr title "pings lost, last"
scalar BusLAN.host[0].pingApp[21] rtt:mean 0.012038768288914
attr interpolationmode none
attr title "ping round-trip time, mean"
attr unit s
scalar BusLAN.host[0].pingApp[22] "Pings sent" 195
scalar BusLAN.host[0].pingApp[22] "ping loss rate (%)" 74.871794871795
scalar BusLAN.host[0].pingApp[22] "ping out-of-order rate (%)" 0
scalar BusLAN.host[0].pingApp[22] pingRxSeq:count 38
attr interpolationmode none
attr title "ping rx seq, count"
scalar BusLAN.host[0].pingApp[22] pingTxSeq:count 148
attr interpolationmode none
attr title "ping tx seq, count"
scalar BusLAN.host[0].pingApp[22] numOutOfOrderArrivals:last nan
attr interpolationmode none
attr title "ping out-of-order arrivals, last"
scalar BusLAN.host[0].pingApp[22] numLost:last 136
attr interpolationmode none
attr title "pings lost, last"
scalar BusLAN.host[0].pingApp[22] rtt:mean 0.011468401592138
attr interpolationmode none
attr title "ping round-trip time, mean"
attr unit s
scalar BusLAN.host[0].pingApp[23] "Pings sent" 202
scalar BusLAN.host[0].pingApp[23] "ping loss rate (%)" 45.049504950495
scalar BusLAN.host[0].pingApp[23] "ping out-of-order rate (%)" 0
scalar BusLAN.host[0].pingApp[23] pingRxSeq:count 81
attr interpolationmode none
attr title "ping rx seq, count"
scalar BusLAN.host[0].pingApp[23] pingTxSeq:count 156
attr interpolationmode none
attr title "ping tx seq, count"
scalar BusLAN.host[0].pingApp[23] numOutOfOrderArrivals:last nan
attr interpolationmode none
attr title "ping out-of-order arrivals, last"
scalar BusLAN.host[0].pingApp[23] numLost:last 91
attr interpolationmode none
attr title "pings lost, last"
scalar BusLAN.host[0].pingApp[23] rtt:mean 0.010697269426894
attr interpolationmode none
attr title "ping round-trip time, mean"
attr unit s
scalar BusLAN.host[0].pingApp[24] "Pings sent" 189
scalar BusLAN.host[0].pingApp[24] "ping loss rate (%)" 65.079365079365
scalar BusLAN.host[0].pingApp[24] "ping out-of-order rate (%)" 0
scalar BusLAN.host[0].pingApp[24] pingRxSeq:count 55
attr interpolationmode none
attr title "ping rx seq, count"
scalar BusLAN.host[0].pingApp[24] pingTxSeq:count 144
attr interpolationmode none
attr title "ping tx seq, count"
scalar BusLAN.host[0].pingApp[24] numOutOfOrderArrivals:last nan
attr interpolationmode none
attr title "ping out-of-order arrivals, last"
scalar BusLAN.host[0].pingApp[24] numLost:last 122
attr interpolationmode none
attr title "pings lost, last"
scalar BusLAN.host[0].pingApp[24] rtt:mean 0.011520170855
attr interpolationmode none
attr title "ping round-trip time, mean"
attr unit s
scalar BusLAN.host[0].pingApp[25] "Pings sent" 192
scalar BusLAN.host[0].pingApp[25] "ping loss rate (%)" 74.479166666667
scalar BusLAN.host[0].pingApp[25] "ping out-of-order rate (%)" 0
scalar BusLAN.host[0].pingApp[25] pingRxSeq:count 34
attr interpolationmode none
attr title "ping rx seq, count"
scalar BusLAN.host[0].pingApp[25] pingTxSeq:count 143
attr interpolationmode none
attr title "ping tx seq, count"
scalar BusLAN.host[0].pingApp[25] numOutOfOrderArrivals:last nan
attr interpolationmode none
attr title "ping out-of-order arrivals, last"
scalar BusLAN.host[0].pingApp[25] numLost:last 142
attr interpolationmode none
attr title "pings lost, last"
scalar BusLAN.host[0].pingApp[25] rtt:mean 0.011348324994
attr interpolationmode none
attr title "ping round-trip time, mean"
attr unit s
scalar BusLAN.host[0].pingApp[26] "Pings sent" 182
scalar BusLAN.host[0].pingApp[26] "ping loss rate (%)" 42.857142857143
scalar BusLAN.host[0].pingApp[26] "ping out-of-order rate (%)" 0
scalar BusLAN.host[0].pingApp[26] pingRxSeq:count 77
attr interpolationmode none
attr title "ping rx seq, count"
scalar BusLAN.host[0].pingApp[26] pingTxSeq:count 136
attr interpolationmode none
attr title "ping tx seq, count"
scalar BusLAN.host[0].pingApp[26] numOutOfOrderArrivals:last nan
attr interpolationmode none
attr title "ping out-of-order arrivals, last"
scalar BusLAN.host[0].pingApp[26] numLost:last 77
attr interpolationmode none
attr title "pings lost, last"
scalar BusLAN.host[0].pingApp[26] rtt:mean 0.010956530792578
attr interpolationmode none
attr title "ping round-trip time, mean"
attr unit s
scalar BusLAN.host[0].pingApp[27] "Pings sent" 194
scalar BusLAN.host[0].pingApp[27] "ping loss rate (%)" 81.443298969072
scalar BusLAN.host[0].pingApp[27] "ping out-of-order rate (%)" 0
scalar BusLAN.host[0].pingApp[27] pingRxSeq:count 27
attr interpolationmode none
attr title "ping rx seq, count"
scalar BusLAN.host[0].pingApp[27] pingTxSeq:count 143
attr interpolationmode none
attr title "ping tx seq, count"
scalar BusLAN.host[0].pingApp[27] numOutOfOrderArrivals:last nan
attr interpolationmode none
attr title "ping out-of-order arrivals, last"
scalar BusLAN.host[0].pingApp[27] numLost:last 158
attr interpolationmode none
attr title "pings lost, last"
scalar BusLAN.host[0].pingApp[27] rtt:mean 0.010750547822278
attr interpolationmode none
attr title "ping round-trip time, mean"
attr unit s
scalar BusLAN.host[0].pingApp[28] "Pings sent" 201
scalar BusLAN.host[0].pingApp[28] "ping loss rate (%)" 69.651741293532
scalar BusLAN.host[0].pingApp[28] "ping out-of-order rate (%)" 0
scalar BusLAN.host[0].pingApp[28] pingRxSeq:count 43
attr interpolationmode none
attr title "ping rx seq, count"
scalar BusLAN.host[0].pingApp[28] pingTxSeq:count 155
attr interpolationmode none
attr title "ping tx seq, count"
scalar BusLAN.host[0].pingApp[28] numOutOfOrderArrivals:last nan
attr interpolationmode none
attr title "ping out-of-order arrivals, last"
scalar BusLAN.host[0].pingApp[28] numLost:last 140
attr interpolationmode none
attr title "pings lost, last"
scalar BusLAN.host[0].pingApp[28] rtt:mean 0.01095911738444
attr interpolationmode none
attr title "ping round-trip time, mean"
attr unit s
scalar BusLAN.host[0].pingApp[29] "Pings sent" 192
scalar BusLAN.host[0].pingApp[29] "ping loss rate (%)" 44.791666666667
scalar BusLAN.host[0].pingApp[29] "ping out-of-order rate (%)" 0
scalar BusLAN.host[0].pingApp[29] pingRxSeq:count 81
attr interpolationmode none
attr title "ping rx seq, count"
scalar BusLAN.host[0].pingApp[29] pingTxSeq:count 147
attr interpolationmode none
attr title "ping tx seq, count"
scalar BusLAN.host[0].pingApp[29] numOutOfOrderArrivals:last nan
attr interpolationmode none
attr title "ping out-of-order arrivals, last"
scalar BusLAN.host[0].pingApp[29] numLost:last 86
attr interpolationmode none
attr title "pings lost, last"
scalar BusLAN.host[0].pingApp[29] rtt:mean 0.011861841151206
attr interpolationmode none
attr title "ping round-trip time, mean"
attr unit s
scalar BusLAN.host[0].pingApp[30] "Pings sent" 190
scalar BusLAN.host[0].pingApp[30] "ping loss rate (%)" 42.631578947368
scalar BusLAN.host[0].pingApp[30] "ping out-of-order rate (%)" 0
scalar BusLAN.host[0].pingApp[30] pingRxSeq:count 82
attr interpolationmode none
attr title "ping rx seq, count"
scalar BusLAN.host[0].pingApp[30] pingTxSeq:count 145
attr interpolationmode none
attr title "ping tx seq, count"
scalar BusLAN.host[0].pingApp[30] numOutOfOrderArrivals:last nan
attr interpolationmode none
attr title "ping out-of-order arrivals, last"
scalar BusLAN.host[0].pingApp[30] numLost:last 81
attr interpolationmode none
attr title "pings lost, last"
scalar BusLAN.host[0].pingApp[30] rtt:mean 0.010835733864667
attr interpolationmode none
attr title "ping round-trip time, mean"
attr unit s
scalar BusLAN.host[0].pingApp[31] "Pings sent" 205
scalar BusLAN.host[0].pingApp[31] "ping loss rate (%)" 41.463414634146
scalar BusLAN.host[0].pingApp[31] "ping out-of-order rate (%)" 0
scalar BusLAN.host[0].pingApp[31] pingRxSeq:count 94
attr interpolationmode none
attr title "ping rx seq, count"
scalar BusLAN.host[0].pingApp[31] pingTxSeq:count 157
attr interpolationmode none
attr title "ping tx seq, count"
scalar BusLAN.host[0].pingApp[31] numOutOfOrderArrivals:last nan
attr interpolationmode none
attr title "ping out-of-order arrivals, last"
scalar BusLAN.host[0].pingApp[31] numLost:last 84
attr interpolationmode none
attr title "pings lost, last"
scalar BusLAN.host[0].pingApp[31] rtt:mean 0.011678569834024
attr interpolationmode none
attr title "ping round-trip time, mean"
attr unit s
scalar BusLAN.host[0].pingApp[32] "Pings sent" 190
scalar BusLAN.host[0].pingApp[32] "ping loss rate (%)" 78.421052631579
scalar BusLAN.host[0].pingApp[32] "ping out-of-order rate (%)" 0
scalar BusLAN.host[0].pingApp[32] pingRxSeq:count 30
attr interpolationmode none
attr title "ping rx seq, count"
scalar BusLAN.host[0].pingApp[32] pingTxSeq:count 144
attr interpolationmode none
attr title "ping tx seq, count"
scalar BusLAN.host[0].pingApp[32] numOutOfOrderArrivals:last nan
attr interpolationmode none
attr title "ping out-of-order arrivals, last"
scalar BusLAN.host[0].pingApp[32] numLost:last 149
attr interpolationmode none
attr title "pings lost, last"
scalar BusLAN.host[0].pingApp[32] rtt:mean 0.0118193800365
attr interpolationmode none
attr title "ping round-trip time, mean"
attr unit s
scalar BusLAN.host[0].pingApp[33] "Pings sent" 189
scalar BusLAN.host[0].pingApp[33] "ping loss rate (%)" 47.089947089947
scalar BusLAN.host[0].pingApp[33] "ping out-of-order rate (%)" 0
scalar BusLAN.host[0].pingApp[33] pingRxSeq:count 82
attr interpolationmode none
attr title "ping rx seq, count"
scalar BusLAN.host[0].pingApp[33] pingTxSeq:count 144
attr interpolationmode none
attr title "ping tx seq, count"
scalar BusLAN.host[0].pingApp[33] numOutOfOrderArrivals:last nan
attr interpolationmode none
attr title "ping out-of-order arrivals, last"
scalar BusLAN.host[0].pingApp[33] numLost:last 88
attr interpolationmode none
attr title "pings lost, last"
scalar BusLAN.host[0].pingApp[33] rtt:mean 0.011923554045824
attr interpolationmode none
attr title "ping round-trip time, mean"
attr unit s
scalar BusLAN.host[0].pingApp[34] "Pings sent" 187
scalar BusLAN.host[0].pingApp[34] "ping loss rate (%)" 74.331550802139
scalar BusLAN.host[0].pingApp[34] "ping out-of-order rate (%)" 0
scalar BusLAN.host[0].pingApp[34] pingRxSeq:count 38
attr interpolationmode none
attr title "ping rx seq, count"
scalar BusLAN.host[0].pingApp[34] pingTxSeq:count 142
attr interpolationmode none
attr title "ping tx seq, count"
scalar BusLAN.host[0].pingApp[34] numOutOfOrderArrivals:last nan
attr interpolationmode none
attr title "ping out-of-order arrivals, last"
scalar BusLAN.host[0].pingApp[34] numLost:last 139
attr interpolationmode none
attr title "pings lost, last"
scalar BusLAN.host[0].pingApp[34] rtt:mean 0.0119357302565
attr interpolationmode none
attr title "ping round-trip time, mean"
attr unit s
scalar BusLAN.host[0].pingApp[35] "Pings sent" 197
scalar BusLAN.host[0].pingApp[35] "ping loss rate (%)" 39.593908629442
scalar BusLAN.host[0].pingApp[35] "ping out-of-order rate (%)" 0
scalar BusLAN.host[0].pingApp[35] pingRxSeq:count 93
attr interpolationmode none
attr title "ping rx seq, count"
scalar BusLAN.host[0].pingApp[35] pingTxSeq:count 151
attr interpolationmode none
attr title "ping tx seq, count"
scalar BusLAN.host[0].pingApp[35] numOutOfOrderArrivals:last nan
attr interpolationmode none
attr title "ping out-of-order arrivals, last"
scalar BusLAN.host[0].pingApp[35] numLost:last 76
attr interpolationmode none
attr title "pings lost, last"
scalar BusLAN.host[0].pingApp[35] rtt:mean 0.011738901715699
attr interpolationmode none
attr title "ping round-trip time, mean"
attr unit s
scalar BusLAN.host[0].pingApp[36] "Pings sent" 198
scalar BusLAN.host[0].pingApp[36] "ping loss rate (%)" 73.232323232323
scalar BusLAN.host[0].pingApp[36] "ping out-of-order rate (%)" 0
scalar BusLAN.host[0].pingApp[36] pingRxSeq:count 40
attr interpolationmode none
attr title "ping rx seq, count"
scalar BusLAN.host[0].pingApp[36] pingTxSeq:count 151
attr interpolationmode none
attr title "ping tx seq, count"
scalar BusLAN.host[0].pingApp[36] numOutOfOrderArrivals:last nan
attr interpolationmode none
attr title "ping out-of-order arrivals, last"
scalar BusLAN.host[0].pingApp[36] numLost:last 145
attr interpolationmode none
attr title "pings lost, last"
scalar BusLAN.host[0].pingApp[36] rtt:mean 0.012413373847
attr interpolationmode none
attr title "ping round-trip time, mean"
attr unit s
scalar BusLAN.host[0].pingApp[37] "Pings sent" 206
scalar BusLAN.host[0].pingApp[37] "ping loss rate (%)" 44.660194174757
scalar BusLAN.host[0].pingApp[37] "ping out-of-order rate (%)" 0.48543689320388
scalar BusLAN.host[0].pingApp[37] pingRxSeq:count 85
attr interpolationmode none
attr title "ping rx seq, count"
scalar BusLAN.host[0].pingApp[37] pingTxSeq:count 157
attr interpolationmode none
attr title "ping tx seq, count"
scalar BusLAN.host[0].pingApp[37] numOutOfOrderArrivals:last 1
attr interpolationmode none
attr title "ping out-of-order arrivals, last"
scalar BusLAN.host[0].pingApp[37] numLost:last 92
attr interpolationmode none
attr title "pings lost, last"
scalar BusLAN.host[0].pingApp[37] rtt:mean 0.012025495306203
attr interpolationmode none
attr title "ping round-trip time, mean"
attr unit s
scalar BusLAN.host[0].pingApp[38] "Pings sent" 207
scalar BusLAN.host[0].pingApp[38] "ping loss rate (%)" 73.913043478261
scalar BusLAN.host[0].pingApp[38] "ping out-of-order rate (%)" 0
scalar BusLAN.host[0].pingApp[38] pingRxSeq:count 40
attr interpolationmode none
attr title "ping rx seq, count"
scalar BusLAN.host[0].pingApp[38] pingTxSeq:count 153
attr interpolationmode none
attr title "ping tx seq, count"
scalar BusLAN.host[0].pingApp[38] numOutOfOrderArrivals:last nan
attr interpolationmode none
attr title "ping out-of-order arrivals, last"
scalar BusLAN.host[0].pingApp[38] numLost:last 153
attr interpolationmode none
attr title "pings lost, last"
scalar BusLAN.host[0].pingApp[38] rtt:mean 0.0113225198169
attr interpolationmode none
attr title "ping round-trip time, mean"
attr unit s
scalar BusLAN.host[0].pingApp[39] "Pings sent" 196
scalar BusLAN.host[0].pingApp[39] "ping loss rate (%)" 72.959183673469
scalar BusLAN.host[0].pingApp[39] "ping out-of-order rate (%)" 0.51020408163265
scalar BusLAN.host[0].pingApp[39] pingRxSeq:count 37
attr interpolationmode none
attr title "ping rx seq, count"
scalar BusLAN.host[0].pingApp[39] pingTxSeq:count 147
attr interpolationmode none
attr title "ping tx seq, count"
scalar BusLAN.host[0].pingApp[39] numOutOfOrderArrivals:last 1
attr interpolationmode none
attr title "ping out-of-order arrivals, last"
scalar BusLAN.host[0].pingApp[39] numLost:last 142
attr interpolationmode none
attr title "pings lost, last"
scalar BusLAN.host[0].pingApp[39] rtt:mean 0.011302812778045
attr interpolationmode none
attr title "ping round-trip time, mean"
attr unit s
scalar BusLAN.host[0].pingApp[40] "Pings sent" 184
scalar BusLAN.host[0].pingApp[40] "ping loss rate (%)" 40.217391304348
scalar BusLAN.host[0].pingApp[40] "ping out-of-order rate (%)" 0
scalar BusLAN.host[0].pingApp[40] pingRxSeq:count 81
attr interpolationmode none
attr title "ping rx seq, count"
scalar BusLAN.host[0].pingApp[40] pingTxSeq:count 135
attr interpolationmode none
attr title "ping tx seq, count"
scalar BusLAN.host[0].pingApp[40] numOutOfOrderArrivals:last nan
attr interpolationmode none
attr title "ping out-of-order arrivals, last"
scalar BusLAN.host[0].pingApp[40] numLost:last 74
attr interpolationmode none
attr title "pings lost, last"
scalar BusLAN.host[0].pingApp[40] rtt:mean 0.010822027528284
attr interpolationmode none
attr title "ping round-trip time, mean"
attr unit s
scalar BusLAN.host[0].pingApp[41] "Pings sent" 195
scalar BusLAN.host[0].pingApp[41] "ping loss rate (%)" 71.794871794872
scalar BusLAN.host[0].pingApp[41] "ping out-of-order rate (%)" 0.51282051282051
scalar BusLAN.host[0].pingApp[41] pingRxSeq:count 44
attr interpolationmode none
attr title "ping rx seq, count"
scalar BusLAN.host[0].pingApp[41] pingTxSeq:count 148
attr interpolationmode none
attr title "ping tx seq, count"
scalar BusLAN.host[0].pingApp[41] numOutOfOrderArrivals:last 1
attr interpolationmode none
attr title "ping out-of-order arrivals, last"
scalar BusLAN.host[0].pingApp[41] numLost:last 138
attr interpolationmode none
attr title "pings lost, last"
scalar BusLAN.host[0].pingApp[41] rtt:mean 0.011925423649792
attr interpolationmode none
attr title "ping round-trip time, mean"
attr unit s
scalar BusLAN.host[0].pingApp[42] "Pings sent" 197
scalar BusLAN.host[0].pingApp[42] "ping loss rate (%)" 46.192893401015
scalar BusLAN.host[0].pingApp[42] "ping out-of-order rate (%)" 0
scalar BusLAN.host[0].pingApp[42] pingRxSeq:count 79
attr interpolationmode none
attr title "ping rx seq, count"
scalar BusLAN.host[0].pingApp[42] pingTxSeq:count 145
attr interpolationmode none
attr title "ping tx seq, count"
scalar BusLAN.host[0].pingApp[42] numOutOfOrderArrivals:last nan
attr interpolationmode none
attr title "ping out-of-order arrivals, last"
scalar BusLAN.host[0].pingApp[42] numLost:last 91
attr interpolationmode none
attr title "pings lost, last"
scalar BusLAN.host[0].pingApp[42] rtt:mean 0.011250382904453
attr interpolationmode none
attr title "ping round-trip time, mean"
attr unit s
scalar BusLAN.host[0].pingApp[43] "Pings sent" 198
scalar BusLAN.host[0].pingApp[43] "ping loss rate (%)" 47.979797979798
scalar BusLAN.host[0].pingApp[43] "ping out-of-order rate (%)" 0.50505050505051
scalar BusLAN.host[0].pingApp[43] pingRxSeq:count 76
attr interpolationmode none
attr title "ping rx seq, count"
scalar BusLAN.host[0].pingApp[43] pingTxSeq:count 148
attr interpolationmode none
attr title "ping tx seq, count"
scalar BusLAN.host[0].pingApp[43] numOutOfOrderArrivals:last 1
attr interpolationmode none
attr title "ping out-of-order arrivals, last"
scalar BusLAN.host[0].pingApp[43] numLost:last 94
attr interpolationmode none
attr title "pings lost, last"
scalar BusLAN.host[0].pingApp[43] rtt:mean 0.011231989013894
attr interpolationmode none
attr title "ping round-trip time, mean"
attr unit s
scalar BusLAN.host[0].pingApp[44] "Pings sent" 190
scalar BusLAN.host[0].pingApp[44] "ping loss rate (%)" 76.842105263158
scalar BusLAN.host[0].pingApp[44] "ping out-of-order rate (%)" 0
scalar BusLAN.host[0].pingApp[44] pingRxSeq:count 30
attr interpolationmode none
attr title "ping rx seq, count"
scalar BusLAN.host[0].pingApp[44] pingTxSeq:count 141
attr interpolationmode none
attr title "ping tx seq, count"
scalar BusLAN.host[0].pingApp[44] numOutOfOrderArrivals:last nan
attr interpolationmode none
attr title "ping out-of-order arrivals, last"
scalar BusLAN.host[0].pingApp[44] numLost:last 146
attr interpolationmode none
attr title "pings lost, last"
scalar BusLAN.host[0].pingApp[44] rtt:mean 0.012560466272368
attr interpolationmode none
attr title "ping round-trip time, mean"
attr unit s
scalar BusLAN.host[0].pingApp[45] "Pings sent" 201
scalar BusLAN.host[0].pingApp[45] "ping loss rate (%)" 75.124378109453
scalar BusLAN.host[0].pingApp[45] "ping out-of-order rate (%)" 0
scalar BusLAN.host[0].pingApp[45] pingRxSeq:count 43
attr interpolationmode none
attr title "ping rx seq, count"
scalar BusLAN.host[0].pingApp[45] pingTxSeq:count 155
attr interpolationmode none
attr title "ping tx seq, count"
scalar BusLAN.host[0].pingApp[45] numOutOfOrderArrivals:last nan
attr interpolationmode none
attr title "ping out-of-order arrivals, last"
scalar BusLAN.host[0].pingApp[45] numLost:last 146
attr interpolationmode none
attr title "pings lost, last"
scalar BusLAN.host[0].pingApp[45] rtt:mean 0.012424209973833
attr interpolationmode none
attr title "ping round-trip time, mean"
attr unit s
scalar BusLAN.host[0].pingApp[46] "Pings sent" 196
scalar BusLAN.host[0].pingApp[46] "ping loss rate (%)" 73.469387755102
scalar BusLAN.host[0].pingApp[46] "ping out-of-order rate (%)" 0
scalar BusLAN.host[0].pingApp[46] pingRxSeq:count 42
attr interpolationmode none
attr title "ping rx seq, count"
scalar BusLAN.host[0].pingApp[46] pingTxSeq:count 151
attr interpolationmode none
attr title "ping tx seq, count"
scalar BusLAN.host[0].pingApp[46] numOutOfOrderArrivals:last nan
attr interpolationmode none
attr title "ping out-of-order arrivals, last"
scalar BusLAN.host[0].pingApp[46] numLost:last 144
attr interpolationmode none
attr title "pings lost, last"
scalar BusLAN.host[0].pingApp[46] rtt:mean 0.01133106295969
attr interpolationmode none
attr title "ping round-trip time, mean"
attr unit s
scalar BusLAN.host[0].pingApp[47] "Pings sent" 193
scalar BusLAN.host[0].pingApp[47] "ping loss rate (%)" 49.740932642487
scalar BusLAN.host[0].pingApp[47] "ping out-of-order rate (%)" 0
scalar BusLAN.host[0].pingApp[47] pingRxSeq:count 74
attr interpolationmode none
attr title "ping rx seq, count"
scalar BusLAN.host[0].pingApp[47] pingTxSeq:count 145
attr interpolationmode none
attr title "ping tx seq, count"
scalar BusLAN.host[0].pingApp[47] numOutOfOrderArrivals:last nan
attr interpolationmode none
attr title "ping out-of-order arrivals, last"
scalar BusLAN.host[0].pingApp[47] numLost:last 96
attr interpolationmode none
attr title "pings lost, last"
scalar BusLAN.host[0].pingApp[47] rtt:mean 0.011332534763339
attr interpolationmode none
attr title "ping round-trip time, mean"
attr unit s
scalar BusLAN.host[0].pingApp[48] "Pings sent" 182
scalar BusLAN.host[0].pingApp[48] "ping loss rate (%)" 37.362637362637
scalar BusLAN.host[0].pingApp[48] "ping out-of-order rate (%)" 0
scalar BusLAN.host[0].pingApp[48] pingRxSeq:count 84
attr interpolationmode none
attr title "ping rx seq, count"
scalar BusLAN.host[0].pingApp[48] pingTxSeq:count 140
attr interpolationmode none
attr title "ping tx seq, count"
scalar BusLAN.host[0].pingApp[48] numOutOfOrderArrivals:last nan
attr interpolationmode none
attr title "ping out-of-order arrivals, last"
scalar BusLAN.host[0].pingApp[48] numLost:last 68
attr interpolationmode none
attr title "pings lost, last"
scalar BusLAN.host[0].pingApp[48] rtt:mean 0.011826369324848
attr interpolationmode none
attr title "ping round-trip time, mean"
attr unit s
scalar BusLAN.host[0].pingApp[49] "Pings sent" 188
scalar BusLAN.host[0].pingApp[49] "ping loss rate (%)" 43.617021276596
scalar BusLAN.host[0].pingApp[49] "ping out-of-order rate (%)" 0.53191489361702
scalar BusLAN.host[0].pingApp[49] pingRxSeq:count 74
attr interpolationmode none
attr title "ping rx seq, count"
scalar BusLAN.host[0].pingApp[49] pingTxSeq:count 139
attr interpolationmode none
attr title "ping tx seq, count"
scalar BusLAN.host[0].pingApp[49] numOutOfOrderArrivals:last 1
attr interpolationmode none
attr title "ping out-of-order arrivals, last"
scalar BusLAN.host[0].pingApp[49] numLost:last 81
attr interpolationmode none
attr title "pings lost, last"
scalar BusLAN.host[0].pingApp[49] rtt:mean 0.010885838073286
attr interpolationmode none
attr title "ping round-trip time, mean"
attr unit s
scalar BusLAN.host[0].pingApp[50] "Pings sent" 206
scalar BusLAN.host[0].pingApp[50] "ping loss rate (%)" 41.26213592233
scalar BusLAN.host[0].pingApp[50] "ping out-of-order rate (%)" 0
scalar BusLAN.host[0].pingApp[50] pingRxSeq:count 96
attr interpolationmode none
attr title "ping rx seq, count"
scalar BusLAN.host[0].pingApp[50] pingTxSeq:count 160
attr interpolationmode none
attr title "ping tx seq, count"
scalar BusLAN.host[0].pingApp[50] numOutOfOrderArrivals:last nan
attr interpolationmode none
attr title "ping out-of-order arrivals, last"
scalar BusLAN.host[0].pingApp[50] numLost:last 82
attr interpolationmode none
attr title "pings lost, last"
scalar BusLAN.host[0].pingApp[50] rtt:mean 0.01075492729568
attr interpolationmode none
attr title "ping round-trip time, mean"
attr unit s
scalar BusLAN.host[0].pingApp[51] "Pings sent" 205
scalar BusLAN.host[0].pingApp[51] "ping loss rate (%)" 76.09756097561
scalar BusLAN.host[0].pingApp[51] "ping out-of-order rate (%)" 0.48780487804878
scalar BusLAN.host[0].pingApp[51] pingRxSeq:count 43
attr interpolationmode none
attr title "ping rx seq, count"
scalar BusLAN.host[0].pingApp[51] pingTxSeq:count 154
attr interpolationmode none
attr title "ping tx seq, count"
scalar BusLAN.host[0].pingApp[51] numOutOfOrderArrivals:last 1
attr interpolationmode none
attr title "ping out-of-order arrivals, last"
scalar BusLAN.host[0].pingApp[51] numLost:last 149
attr interpolationmode none
attr title "pings lost, last"
scalar BusLAN.host[0].pingApp[51] rtt:mean 0.012477266246786
attr interpolationmode none
attr title "ping round-trip time, mean"
attr unit s
scalar BusLAN.host[0].pingApp[52] "Pings sent" 187
scalar BusLAN.host[0].pingApp[52] "ping loss rate (%)" 76.470588235294
scalar BusLAN.host[0].pingApp[52] "ping out-of-order rate (%)" 0
scalar BusLAN.host[0].pingApp[52] pingRxSeq:count 35
attr interpolationmode none
attr title "ping rx seq, count"
scalar BusLAN.host[0].pingApp[52] pingTxSeq:count 143
attr interpolationmode none
attr title "ping tx seq, count"
scalar BusLAN.host[0].pingApp[52] numOutOfOrderArrivals:last nan
attr interpolationmode none
attr title "ping out-of-order arrivals, last"
scalar BusLAN.host[0].pingApp[52] numLost:last 139
attr interpolationmode none
attr title "pings lost, last"
scalar BusLAN.host[0].pingApp[52] rtt:mean 0.0118817196775
attr interpolationmode none
attr title "ping round-trip time, mean"
attr unit s
scalar BusLAN.host[0].pingApp[53] "Pings sent" 200
scalar BusLAN.host[0].pingApp[53] "ping loss rate (%)" 74
scalar BusLAN.host[0].pingApp[53] "ping out-of-order rate (%)" 0
scalar BusLAN.host[0].pingApp[53] pingRxSeq:count 43
attr interpolationmode none
attr title "ping rx seq, count"
scalar BusLAN.host[0].pingApp[53] pingTxSeq:count 151
attr interpolationmode none
attr title "ping tx seq, count"
scalar BusLAN.host[0].pingApp[53] numOutOfOrderArrivals:last nan
attr interpolationmode none
attr title "ping out-of-order arrivals, last"
scalar BusLAN.host[0].pingApp[53] numLost:last 144
attr interpolationmode none
attr title "pings lost, last"
scalar BusLAN.host[0].pingApp[53] rtt:mean 0.010952564988958
attr interpolationmode none
attr title "ping round-trip time, mean"
attr unit s
scalar BusLAN.host[0].pingApp[54] "Pings sent" 197
scalar BusLAN.host[0].pingApp[54] "ping loss rate (%)" 76.142131979695
scalar BusLAN.host[0].pingApp[54] "ping out-of-order rate (%)" 0.50761421319797
scalar BusLAN.host[0].pingApp[54] pingRxSeq:count 36
attr interpolationmode none
attr title "ping rx seq, count"
scalar BusLAN.host[0].pingApp[54] pingTxSeq:count 144
attr interpolationmode none
attr title "ping tx seq, count"
scalar BusLAN.host[0].pingApp[54] numOutOfOrderArrivals:last 1
attr interpolationmode none
attr title "ping out-of-order arrivals, last"
scalar BusLAN.host[0].pingApp[54] numLost:last 147
attr interpolationmode none
attr title "pings lost, last"
scalar BusLAN.host[0].pingApp[54] rtt:mean 0.011213599681
attr interpolationmode none
attr title "ping round-trip time, mean"
attr unit s
scalar BusLAN.host[0].pingApp[55] "Pings sent" 188
scalar BusLAN.host[0].pingApp[55] "ping loss rate (%)" 81.914893617021
scalar BusLAN.host[0].pingApp[55] "ping out-of-order rate (%)" 0
scalar BusLAN.host[0].pingApp[55] pingRxSeq:count 23
attr interpolationmode none
attr title "ping rx seq, count"
scalar BusLAN.host[0].pingApp[55] pingTxSeq:count 141
attr interpolationmode none
attr title "ping tx seq, count"
scalar BusLAN.host[0].pingApp[55] numOutOfOrderArrivals:last nan
attr interpolationmode none
attr title "ping out-of-order arrivals, last"
scalar BusLAN.host[0].pingApp[55] numLost:last 150
attr interpolationmode none
attr title "pings lost, last"
scalar BusLAN.host[0].pingApp[55] rtt:mean 0.012115947284333
attr interpolationmode none
attr title "ping round-trip time, mean"
attr unit s
scalar BusLAN.host[0].pingApp[56] "Pings sent" 196
scalar BusLAN.host[0].pingApp[56] "ping loss rate (%)" 77.040816326531
scalar BusLAN.host[0].pingApp[56] "ping out-of-order rate (%)" 0
scalar BusLAN.host[0].pingApp[56] pingRxSeq:count 41
attr interpolationmode none
attr title "ping rx seq, count"
scalar BusLAN.host[0].pingApp[56] pingTxSeq:count 151
attr interpolationmode none
attr title "ping tx seq, count"
scalar BusLAN.host[0].pingApp[56] numOutOfOrderArrivals:last nan
attr interpolationmode none
attr title "ping out-of-order arrivals, last"
scalar BusLAN.host[0].pingApp[56] numLost:last 141
attr interpolationmode none
attr title "pings lost, last"
scalar BusLAN.host[0].pingApp[56] rtt:mean 0.01160183769663
attr interpolationmode none
attr title "ping round-trip time, mean"
attr unit s
scalar BusLAN.host[0].pingApp[57] "Pings sent" 192
scalar BusLAN.host[0].pingApp[57] "ping loss rate (%)" 73.958333333333
scalar BusLAN.host[0].pingApp[57] "ping out-of-order rate (%)" 0
scalar BusLAN.host[0].pingApp[57] pingRxSeq:count 37
attr interpolationmode none
attr title "ping rx seq, count"
scalar BusLAN.host[0].pingApp[57] pingTxSeq:count 145
attr interpolationmode none
attr title "ping tx seq, count"
scalar BusLAN.host[0].pingApp[57] numOutOfOrderArrivals:last nan
attr interpolationmode none
attr title "ping out-of-order arrivals, last"
scalar BusLAN.host[0].pingApp[57] numLost:last 140
attr interpolationmode none
attr title "pings lost, last"
scalar BusLAN.host[0].pingApp[57] rtt:mean 0.011259395042727
attr interpolationmode none
attr title "ping round-trip time, mean"
attr unit s
scalar BusLAN.host[0].pingApp[58] "Pings sent" 191
scalar BusLAN.host[0].pingApp[58] "ping loss rate (%)" 43.455497382199
scalar BusLAN.host[0].pingApp[58] "ping out-of-order rate (%)" 0
scalar BusLAN.host[0].pingApp[58] pingRxSeq:count 90
attr interpolationmode none
attr title "ping rx seq, count"
scalar BusLAN.host[0].pingApp[58] pingTxSeq:count 150
attr interpolationmode none
attr title "ping tx seq, count"
scalar BusLAN.host[0].pingApp[58] numOutOfOrderArrivals:last nan
attr interpolationmode none
attr title "ping out-of-order arrivals, last"
scalar BusLAN.host[0].pingApp[58] numLost:last 83
attr interpolationmode none
attr title "pings lost, last"
scalar BusLAN.host[0].pingApp[58] rtt:mean 0.011064273667297
attr interpolationmode none
attr title "ping round-trip time, mean"
attr unit s
scalar BusLAN.host[0].pingApp[59] "Pings sent" 188
scalar BusLAN.host[0].pingApp[59] "ping loss rate (%)" 46.276595744681
scalar BusLAN.host[0].pingApp[59] "ping out-of-order rate (%)" 0
scalar BusLAN.host[0].pingApp[59] pingRxSeq:count 80
attr interpolationmode none
attr title "ping rx seq, count"
scalar BusLAN.host[0].pingApp[59] pingTxSeq:count 145
attr interpolationmode none
attr title "ping tx seq, count"
scalar BusLAN.host[0].pingApp[59] numOutOfOrderArrivals:last nan
attr interpolationmode none
attr title "ping out-of-order arrivals, last"
scalar BusLAN.host[0].pingApp[59] numLost:last 87
attr interpolationmode none
attr title "pings lost, last"
scalar BusLAN.host[0].pingApp[59] rtt:mean 0.011464867864985
attr interpolationmode none
attr title "ping round-trip time, mean"
attr unit s
scalar BusLAN.host[0].pingApp[60] "Pings sent" 188
scalar BusLAN.host[0].pingApp[60] "ping loss rate (%)" 73.936170212766
scalar BusLAN.host[0].pingApp[60] "ping out-of-order rate (%)" 0
scalar BusLAN.host[0].pingApp[60] pingRxSeq:count 34
attr interpolationmode none
attr title "ping rx seq, count"
scalar BusLAN.host[0].pingApp[60] pingTxSeq:count 140
attr interpolationmode none
attr title "ping tx seq, count"
scalar BusLAN.host[0].pingApp[60] numOutOfOrderArrivals:last nan
attr interpolationmode none
attr title "ping out-of-order arrivals, last"
scalar BusLAN.host[0].pingApp[60] numLost:last 137
attr interpolationmode none
attr title "pings lost, last"
scalar BusLAN.host[0].pingApp[60] rtt:mean 0.01118974936848
attr interpolationmode none
attr title "ping round-trip time, mean"
attr unit s
scalar BusLAN.host[0].pingApp[61] "Pings sent" 191
scalar BusLAN.host[0].pingApp[61] "ping loss rate (%)" 77.486910994764
scalar BusLAN.host[0].pingApp[61] "ping out-of-order rate (%)" 0
scalar BusLAN.host[0].pingApp[61] pingRxSeq:count 33
attr interpolationmode none
attr title "ping rx seq, count"
scalar BusLAN.host[0].pingApp[61] pingTxSeq:count 143
attr interpolationmode none
attr title "ping tx seq, count"
scalar BusLAN.host[0].pingApp[61] numOutOfOrderArrivals:last nan
attr interpolationmode none
attr title "ping out-of-order arrivals, last"
scalar BusLAN.host[0].pingApp[61] numLost:last 148
attr interpolationmode none
attr title "pings lost, last"
scalar BusLAN.host[0].pingApp[61] rtt:mean 0.010776897136118
attr interpolationmode none
attr title "ping round-trip time, mean"
attr unit s
scalar BusLAN.host[0].pingApp[62] "Pings sent" 197
scalar BusLAN.host[0].pingApp[62] "ping loss rate (%)" 74.111675126904
scalar BusLAN.host[0].pingApp[62] "ping out-of-order rate (%)" 0
scalar BusLAN.host[0].pingApp[62] pingRxSeq:count 38
attr interpolationmode none
attr title "ping rx seq, count"
scalar BusLAN.host[0].pingApp[62] pingTxSeq:count 149
attr interpolationmode none
attr title "ping tx seq, count"
scalar BusLAN.host[0].pingApp[62] numOutOfOrderArrivals:last nan
attr interpolationmode none
attr title "ping out-of-order arrivals, last"
scalar BusLAN.host[0].pingApp[62] numLost:last 146
attr interpolationmode none
attr title "pings lost, last"
scalar BusLAN.host[0].pingApp[62] rtt:mean 0.01114360384552
attr interpolationmode none
attr title "ping round-trip time, mean"
attr unit s
scalar BusLAN.host[0].pingApp[63] "Pings sent" 201
scalar BusLAN.host[0].pingApp[63] "ping loss rate (%)" 73.134328358209
scalar BusLAN.host[0].pingApp[63] "ping out-of-order rate (%)" 0
scalar BusLAN.host[0].pingApp[63] pingRxSeq:count 38
attr interpolationmode none
attr title "ping rx seq, count"
scalar BusLAN.host[0].pingApp[63] pingTxSeq:count 147
attr interpolationmode none
attr title "ping tx seq, count"
scalar BusLAN.host[0].pingApp[63] numOutOfOrderArrivals:last nan
attr interpolationmode none
attr title "ping out-of-order arrivals, last"
scalar BusLAN.host[0].pingApp[63] numLost:last 146
attr interpolationmode none
attr title "pings lost, last"
scalar BusLAN.host[0].pingApp[63] rtt:mean 0.011416002329471
attr interpolationmode none
attr title "ping round-trip time, mean"
attr unit s
scalar BusLAN.host[0].pingApp[64] "Pings sent" 194
scalar BusLAN.host[0].pingApp[64] "ping loss rate (%)" 75.257731958763
scalar BusLAN.host[0].pingApp[64] "ping out-of-order rate (%)" 0
scalar BusLAN.host[0].pingApp[64] pingRxSeq:count 40
attr interpolationmode none
attr title "ping rx seq, count"
scalar BusLAN.host[0].pingApp[64] pingTxSeq:count 147
attr interpolationmode none
attr title "ping tx seq, count"
scalar BusLAN.host[0].pingApp[64] numOutOfOrderArrivals:last nan
attr interpolationmode none
attr title "ping out-of-order arrivals, last"
scalar BusLAN.host[0].pingApp[64] numLost:last 145
attr interpolationmode none
attr title "pings lost, last"
scalar BusLAN.host[0].pingApp[64] rtt:mean 0.011219018305375
attr interpolationmode none
attr title "ping round-trip time, mean"
attr unit s
scalar BusLAN.host[0].pingApp[65] "Pings sent" 194
scalar BusLAN.host[0].pingApp[65] "ping loss rate (%)" 35.051546391753
scalar BusLAN.host[0].pingApp[65] "ping out-of-order rate (%)" 0
scalar BusLAN.host[0].pingApp[65] pingRxSeq:count 102
attr interpolationmode none
attr title "ping rx seq, count"
scalar BusLAN.host[0].pingApp[65] pingTxSeq:count 149
attr interpolationmode none
attr title "ping tx seq, count"
scalar BusLAN.host[0].pingApp[65] numOutOfOrderArrivals:last nan
attr interpolationmode none
attr title "ping out-of-order arrivals, last"
scalar BusLAN.host[0].pingApp[65] numLost:last 68
attr interpolationmode none
attr title "pings lost, last"
scalar BusLAN.host[0].pingApp[65] rtt:mean 0.011778194823259
attr interpolationmode none
attr title "ping round-trip time, mean"
attr unit s
scalar BusLAN.host[0].pingApp[66] "Pings sent" 200
scalar BusLAN.host[0].pingApp[66] "ping loss rate (%)" 77
scalar BusLAN.host[0].pingApp[66] "ping out-of-order rate (%)" 0
scalar BusLAN.host[0].pingApp[66] pingRxSeq:count 35
attr interpolationmode none
attr title "ping rx seq, count"
scalar BusLAN.host[0].pingApp[66] pingTxSeq:count 151
attr interpolationmode none
attr title "ping tx seq, count"
scalar BusLAN.host[0].pingApp[66] numOutOfOrderArrivals:last nan
attr interpolationmode none
attr title "ping out-of-order arrivals, last"
scalar BusLAN.host[0].pingApp[66] numLost:last 153
attr interpolationmode none
attr title "pings lost, last"
scalar BusLAN.host[0].pingApp[66] rtt:mean 0.011604983772842
attr interpolationmode none
attr title "ping round-trip time, mean"
attr unit s
scalar BusLAN.host[0].pingApp[67] "Pings sent" 195
scalar BusLAN.host[0].pingApp[67] "ping loss rate (%)" 42.564102564103
scalar BusLAN.host[0].pingApp[67] "ping out-of-order rate (%)" 0
scalar BusLAN.host[0].pingApp[67] pingRxSeq:count 89
attr interpolationmode none
attr title "ping rx seq, count"
scalar BusLAN.host[0].pingApp[67] pingTxSeq:count 147
attr interpolationmode none
attr title "ping tx seq, count"
scalar BusLAN.host[0].pingApp[67] numOutOfOrderArrivals:last nan
attr interpolationmode none
attr title "ping out-of-order arrivals, last"
scalar BusLAN.host[0].pingApp[67] numLost:last 83
attr interpolationmode none
attr title "pings lost, last"
scalar BusLAN.host[0].pingApp[67] rtt:mean 0.012042121941052
attr interpolationmode none
attr title "ping round-trip time, mean"
attr unit s
scalar BusLAN.host[0].pingApp[68] "Pings sent" 188
scalar BusLAN.host[0].pingApp[68] "ping loss rate (%)" 41.489361702128
scalar BusLAN.host[0].pingApp[68] "ping out-of-order rate (%)" 0
scalar BusLAN.host[0].pingApp[68] pingRxSeq:count 89
attr interpolationmode none
attr title "ping rx seq, count"
scalar BusLAN.host[0].pingApp[68] pingTxSeq:count 143
attr interpolationmode none
attr title "ping tx seq, count"
scalar BusLAN.host[0].pingApp[68] numOutOfOrderArrivals:last nan
attr interpolationmode none
attr title "ping out-of-order arrivals, last"
scalar BusLAN.host[0].pingApp[68] numLost:last 76
attr interpolationmode none
attr title "pings lost, last"
scalar BusLAN.host[0].pingApp[68] rtt:mean 0.011772091969206
attr interpolationmode none
attr title "ping round-trip time, mean"
attr unit s
scalar BusLAN.host[0].pingApp[69] "Pings sent" 186
scalar BusLAN.host[0].pingApp[69] "ping loss rate (%)" 74.193548387097
scalar BusLAN.host[0].pingApp[69] "ping out-of-order rate (%)" 0
scalar BusLAN.host[0].pingApp[69] pingRxSeq:count 36
attr interpolationmode none
attr title "ping rx seq, count"
scalar BusLAN.host[0].pingApp[69] pingTxSeq:count 140
attr interpolationmode none
attr title "ping tx seq, count"
scalar BusLAN.host[0].pingApp[69] numOutOfOrderArrivals:last nan
attr interpolationmode none
attr title "ping out-of-order arrivals, last"
scalar BusLAN.host[0].pingApp[69] numLost:last 138
attr interpolationmode none
attr title "pings lost, last"
scalar BusLAN.host[0].pingApp[69] rtt:mean 0.01102802664065
attr interpolationmode none
attr title "ping round-trip time, mean"
attr unit s
scalar BusLAN.host[0].pingApp[70] "Pings sent" 184
scalar BusLAN.host[0].pingApp[70] "ping loss rate (%)" 74.45652173913
scalar BusLAN.host[0].pingApp[70] "ping out-of-order rate (%)" 0
scalar BusLAN.host[0].pingApp[70] pingRxSeq:count 34
attr interpolationmode none
attr title "ping rx seq, count"
scalar BusLAN.host[0].pingApp[70] pingTxSeq:count 134
attr interpolationmode none
attr title "ping tx seq, count"
scalar BusLAN.host[0].pingApp[70] numOutOfOrderArrivals:last nan
attr interpolationmode none
attr title "ping out-of-order arrivals, last"
scalar BusLAN.host[0].pingApp[70] numLost:last 133
attr interpolationmode none
attr title "pings lost, last"
scalar BusLAN.host[0].pingApp[70] rtt:mean 0.012466019749526
attr interpolationmode none
attr title "ping round-trip time, mean"
attr unit s
scalar BusLAN.host[0].pingApp[71] "Pings sent" 191
scalar BusLAN.host[0].pingApp[71] "ping loss rate (%)" 74.869109947644
scalar BusLAN.host[0].pingApp[71] "ping out-of-order rate (%)" 0
scalar BusLAN.host[0].pingApp[71] pingRxSeq:count 39
attr interpolationmode none
attr title "ping rx seq, count"
scalar BusLAN.host[0].pingApp[71] pingTxSeq:count 142
attr interpolationmode none
attr title "ping tx seq, count"
scalar BusLAN.host[0].pingApp[71] numOutOfOrderArrivals:last nan
attr interpolationmode none
attr title "ping out-of-order arrivals, last"
scalar BusLAN.host[0].pingApp[71] numLost:last 139
attr interpolationmode none
attr title "pings lost, last"
scalar BusLAN.host[0].pingApp[71] rtt:mean 0.011699210720478
attr interpolationmode none
attr title "ping round-trip time, mean"
attr unit s
scalar BusLAN.host[0].pingApp[72] "Pings sent" 183
scalar BusLAN.host[0].pingApp[72] "ping loss rate (%)" 41.530054644809
scalar BusLAN.host[0].pingApp[72] "ping out-of-order rate (%)" 0
scalar BusLAN.host[0].pingApp[72] pingRxSeq:count 81
attr interpolationmode none
attr title "ping rx seq, count"
scalar BusLAN.host[0].pingApp[72] pingTxSeq:count 140
attr interpolationmode none
attr title "ping tx seq, count"
scalar BusLAN.host[0].pingApp[72] numOutOfOrderArrivals:last nan
attr interpolationmode none
attr title "ping out-of-order arrivals, last"
scalar BusLAN.host[0].pingApp[72] numLost:last 76
attr interpolationmode none
attr title "pings lost, last"
scalar BusLAN.host[0].pingApp[72] rtt:mean 0.011836136844371
attr interpolationmode none
attr title "ping round-trip time, mean"
attr unit s
scalar BusLAN.host[0].pingApp[73] "Pings sent" 187
scalar BusLAN.host[0].pingApp[73] "ping loss rate (%)" 48.128342245989
scalar BusLAN.host[0].pingApp[73] "ping out-of-order rate (%)" 0
scalar BusLAN.host[0].pingApp[73] pingRxSeq:count 73
attr interpolationmode none
attr title "ping rx seq, count"
scalar BusLAN.host[0].pingApp[73] pingTxSeq:count 142
attr interpolationmode none
attr title "ping tx seq, count"
scalar BusLAN.host[0].pingApp[73] numOutOfOrderArrivals:last nan
attr interpolationmode none
attr title "ping out-of-order arrivals, last"
scalar BusLAN.host[0].pingApp[73] numLost:last 89
attr interpolationmode none
attr title "pings lost, last"
scalar BusLAN.host[0].pingApp[73] rtt:mean 0.011810719565276
attr interpolationmode none
attr title "ping round-trip time, mean"
attr unit s
scalar BusLAN.host[0].pingApp[74] "Pings sent" 196
scalar BusLAN.host[0].pingApp[74] "ping loss rate (%)" 73.469387755102
scalar BusLAN.host[0].pingApp[74] "ping out-of-order rate (%)" 0
scalar BusLAN.host[0].pingApp[74] pingRxSeq:count 39
attr interpolationmode none
attr title "ping rx seq, count"
scalar BusLAN.host[0].pingApp[74] pingTxSeq:count 148
attr interpolationmode none
attr title "ping tx seq, count"
scalar BusLAN.host[0].pingApp[74] numOutOfOrderArrivals:last nan
attr interpolationmode none
attr title "ping out-of-order arrivals, last"
scalar BusLAN.host[0].pingApp[74] numLost:last 143
attr interpolationmode none
attr title "pings lost, last"
scalar BusLAN.host[0].pingApp[74] rtt:mean 0.01138724227504
attr interpolationmode none
attr title "ping round-trip time, mean"
attr unit s
scalar BusLAN.host[0].pingApp[75] "Pings sent" 195
scalar BusLAN.host[0].pingApp[75] "ping loss rate (%)" 38.461538461538
scalar BusLAN.host[0].pingApp[75] "ping out-of-order rate (%)" 0
scalar BusLAN.host[0].pingApp[75] pingRxSeq:count 91
attr interpolationmode none
attr title "ping rx seq, count"
scalar BusLAN.host[0].pingApp[75] pingTxSeq:count 147
attr interpolationmode none
attr title "ping tx seq, count"
scalar BusLAN.host[0].pingApp[75] numOutOfOrderArrivals:last nan
attr interpolationmode none
attr title "ping out-of-order arrivals, last"
scalar BusLAN.host[0].pingApp[75] numLost:last 74
attr interpolationmode none
attr title "pings lost, last"
scalar BusLAN.host[0].pingApp[75] rtt:mean 0.011944422270117
attr interpolationmode none
attr title "ping round-trip time, mean"
attr unit s
scalar BusLAN.host[0].pingApp[76] "Pings sent" 201
scalar BusLAN.host[0].pingApp[76] "ping loss rate (%)" 72.636815920398
scalar BusLAN.host[0].pingApp[76] "ping out-of-order rate (%)" 0
scalar BusLAN.host[0].pingApp[76] pingRxSeq:count 39
attr interpolationmode none
attr title "ping rx seq, count"
scalar BusLAN.host[0].pingApp[76] pingTxSeq:count 153
attr interpolationmode none
attr title "ping tx seq, count"
scalar BusLAN.host[0].pingApp[76] numOutOfOrderArrivals:last nan
attr interpolationmode none
attr title "ping out-of-order arrivals, last"
scalar BusLAN.host[0].pingApp[76] numLost:last 144
attr interpolationmode none
attr title "pings lost, last"
scalar BusLAN.host[0].pingApp[76] rtt:mean 0.011342869420238
attr interpolationmode none
attr title "ping round-trip time, mean"
attr unit s
scalar BusLAN.host[0].pingApp[77] "Pings sent" 199
scalar BusLAN.host[0].pingApp[77] "ping loss rate (%)" 41.206030150754
scalar BusLAN.host[0].pingApp[77] "ping out-of-order rate (%)" 0
scalar BusLAN.host[0].pingApp[77] pingRxSeq:count 89
attr interpolationmode none
attr title "ping rx seq, count"
scalar BusLAN.host[0].pingApp[77] pingTxSeq:count 152
attr interpolationmode none
attr title "ping tx seq, count"
scalar BusLAN.host[0].pingApp[77] numOutOfOrderArrivals:last nan
attr interpolationmode none
attr title "ping out-of-order arrivals, last"
scalar BusLAN.host[0].pingApp[77] numLost:last 81
attr interpolationmode none
attr title "pings lost, last"
scalar BusLAN.host[0].pingApp[77] rtt:mean 0.012019739484244
attr interpolationmode none
attr title "ping round-trip time, mean"
attr unit s
scalar BusLAN.host[0].pingApp[78] "Pings sent" 198
scalar BusLAN.host[0].pingApp[78] "ping loss rate (%)" 40.909090909091
scalar BusLAN.host[0].pingApp[78] "ping out-of-order rate (%)" 0.50505050505051
scalar BusLAN.host[0].pingApp[78] pingRxSeq:count 94
attr interpolationmode none
attr title "ping rx seq, count"
scalar BusLAN.host[0].pingApp[78] pingTxSeq:count 153
attr interpolationmode none
attr title "ping tx seq, count"
scalar BusLAN.host[0].pingApp[78] numOutOfOrderArrivals:last 1
attr interpolationmode none
attr title "ping out-of-order arrivals, last"
scalar BusLAN.host[0].pingApp[78] numLost:last 81
attr interpolationmode none
attr title "pings lost, last"
scalar BusLAN.host[0].pingApp[78] rtt:mean 0.011309971615451
attr interpolationmode none
attr title "ping round-trip time, mean"
attr unit s
scalar BusLAN.host[0].pingApp[79] "Pings sent" 188
scalar BusLAN.host[0].pingApp[79] "ping loss rate (%)" 41.489361702128
scalar BusLAN.host[0].pingApp[79] "ping out-of-order rate (%)" 0
scalar BusLAN.host[0].pingApp[79] pingRxSeq:count 84
attr interpolationmode none
attr title "ping rx seq, count"
scalar BusLAN.host[0].pingApp[79] pingTxSeq:count 145
attr interpolationmode none
attr title "ping tx seq, count"
scalar BusLAN.host[0].pingApp[79] numOutOfOrderArrivals:last nan
attr interpolationmode none
attr title "ping out-of-order arrivals, last"
scalar BusLAN.host[0].pingApp[79] numLost:last 77
attr interpolationmode none
attr title "pings lost, last"
scalar BusLAN.host[0].pingApp[79] rtt:mean 0.012414131148414
attr interpolationmode none
attr title "ping round-trip time, mean"
attr unit s
scalar BusLAN.host[0].pingApp[80] "Pings sent" 188
scalar BusLAN.host[0].pingApp[80] "ping loss rate (%)" 48.404255319149
scalar BusLAN.host[0].pingApp[80] "ping out-of-order rate (%)" 0
scalar BusLAN.host[0].pingApp[80] pingRxSeq:count 76
attr interpolationmode none
attr title "ping rx seq, count"
scalar BusLAN.host[0].pingApp[80] pingTxSeq:count 139
attr interpolationmode none
attr title "ping tx seq, count"
scalar BusLAN.host[0].pingApp[80] numOutOfOrderArrivals:last nan
attr interpolationmode none
attr title "ping out-of-order arrivals, last"
scalar BusLAN.host[0].pingApp[80] numLost:last 90
attr interpolationmode none
attr title "pings lost, last"
scalar BusLAN.host[0].pingApp[80] rtt:mean 0.011405408952484
attr interpolationmode none
attr title "ping round-trip time, mean"
attr unit s
scalar BusLAN.host[0].pingApp[81] "Pings sent" 192
scalar BusLAN.host[0].pingApp[81] "ping loss rate (%)" 77.083333333333
scalar BusLAN.host[0].pingApp[81] "ping out-of-order rate (%)" 0
scalar BusLAN.host[0].pingApp[81] pingRxSeq:count 30
attr interpolationmode none
attr title "ping rx seq, count"
scalar BusLAN.host[0].pingApp[81] pingTxSeq:count 145
attr interpolationmode none
attr title "ping tx seq, count"
scalar BusLAN.host[0].pingApp[81] numOutOfOrderArrivals:last nan
attr interpolationmode none
attr title "ping out-of-order arrivals, last"
scalar BusLAN.host[0].pingApp[81] numLost:last 144
attr interpolationmode none
attr title "pings lost, last"
scalar BusLAN.host[0].pingApp[81] rtt:mean 0.0120917362738
attr interpolationmode none
attr title "ping round-trip time, mean"
attr unit s
scalar BusLAN.host[0].pingApp[82] "Pings sent" 190
scalar BusLAN.host[0].pingApp[82] "ping loss rate (%)" 78.947368421053
scalar BusLAN.host[0].pingApp[82] "ping out-of-order rate (%)" 0
scalar BusLAN.host[0].pingApp[82] pingRxSeq:count 23
attr interpolationmode none
attr title "ping rx seq, count"
scalar BusLAN.host[0].pingApp[82] pingTxSeq:count 142
attr interpolationmode none
attr title "ping tx seq, count"
scalar BusLAN.host[0].pingApp[82] numOutOfOrderArrivals:last nan
attr interpolationmode none
attr title "ping out-of-order arrivals, last"
scalar BusLAN.host[0].pingApp[82] numLost:last 144
attr interpolationmode none
attr title "pings lost, last"
scalar BusLAN.host[0].pingApp[82] rtt:mean 0.011614111888833
attr interpolationmode none
attr title "ping round-trip time, mean"
attr unit s
scalar BusLAN.host[0].pingApp[83] "Pings sent" 190
scalar BusLAN.host[0].pingApp[83] "ping loss rate (%)" 71.578947368421
scalar BusLAN.host[0].pingApp[83] "ping out-of-order rate (%)" 0
scalar BusLAN.host[0].pingApp[83] pingRxSeq:count 44
attr interpolationmode none
attr title "ping rx seq, count"
scalar BusLAN.host[0].pingApp[83] pingTxSeq:count 142
attr interpolationmode none
attr title "ping tx seq, count"
scalar BusLAN.host[0].pingApp[83] numOutOfOrderArrivals:last nan
attr interpolationmode none
attr title "ping out-of-order arrivals, last"
scalar BusLAN.host[0].pingApp[83] numLost:last 136
attr interpolationmode none
attr title "pings lost, last"
scalar BusLAN.host[0].pingApp[83] rtt:mean 0.011140564443846
attr interpolationmode none
attr title "ping round-trip time, mean"
attr unit s
scalar BusLAN.host[0].pingApp[84] "Pings sent" 189
scalar BusLAN.host[0].pingApp[84] "ping loss rate (%)" 40.740740740741
scalar BusLAN.host[0].pingApp[84] "ping out-of-order rate (%)" 0
scalar BusLAN.host[0].pingApp[84] pingRxSeq:count 84
attr interpolationmode none
attr title "ping rx seq, count"
scalar BusLAN.host[0].pingApp[84] pingTxSeq:count 140
attr interpolationmode none
attr title "ping tx seq, count"
scalar BusLAN.host[0].pingApp[84] numOutOfOrderArrivals:last nan
attr interpolationmode none
attr title "ping out-of-order arrivals, last"
scalar BusLAN.host[0].pingApp[84] numLost:last 76
attr interpolationmode none
attr title "pings lost, last"
scalar BusLAN.host[0].pingApp[84] rtt:mean 0.011712728268043
attr interpolationmode none
attr title "ping round-trip time, mean"
attr unit s
scalar BusLAN.host[0].pingApp[85] "Pings sent" 201
scalar BusLAN.host[0].pingApp[85] "ping loss rate (%)" 70.149253731343
scalar BusLAN.host[0].pingApp[85] "ping out-of-order rate (%)" 0
scalar BusLAN.host[0].pingApp[85] pingRxSeq:count 49
attr interpolationmode none
attr title "ping rx seq, count"
scalar BusLAN.host[0].pingApp[85] pingTxSeq:count 151
attr interpolationmode none
attr title "ping tx seq, count"
scalar BusLAN.host[0].pingApp[85] numOutOfOrderArrivals:last nan
attr interpolationmode none
attr title "ping out-of-order arrivals, last"
scalar BusLAN.host[0].pingApp[85] numLost:last 141
attr interpolationmode none
attr title "pings lost, last"
scalar BusLAN.host[0].pingApp[85] rtt:mean 0.011074352751467
attr interpolationmode none
attr title "ping round-trip time, mean"
attr unit s
scalar BusLAN.host[0].pingApp[86] "Pings sent" 205
scalar BusLAN.host[0].pingApp[86] "ping loss rate (%)" 71.219512195122
scalar BusLAN.host[0].pingApp[86] "ping out-of-order rate (%)" 0
scalar BusLAN.host[0].pingApp[86] pingRxSeq:count 45
attr interpolationmode none
attr title "ping rx seq, count"
scalar BusLAN.host[0].pingApp[86] pingTxSeq:count 155
attr interpolationmode none
attr title "ping tx seq, count"
scalar BusLAN.host[0].pingApp[86] numOutOfOrderArrivals:last nan
attr interpolationmode none
attr title "ping out-of-order arrivals, last"
scalar BusLAN.host[0].pingApp[86] numLost:last 146
attr interpolationmode none
attr title "pings lost, last"
scalar BusLAN.host[0].pingApp[86] rtt:mean 0.012251167264452
attr interpolationmode none
[...]
attr title "ping tx seq, count"
scalar BusLAN.host[9].pingApp[101] numOutOfOrderArrivals:last nan
attr interpolationmode none
attr title "ping out-of-order arrivals, last"
scalar BusLAN.host[9].pingApp[101] numLost:last 153
attr interpolationmode none
attr title "pings lost, last"
scalar BusLAN.host[9].pingApp[101] rtt:mean 0.011518004333318
attr interpolationmode none
attr title "ping round-trip time, mean"
attr unit s
scalar BusLAN.host[9].pingApp[102] "Pings sent" 197
scalar BusLAN.host[9].pingApp[102] "ping loss rate (%)" 40.609137055838
scalar BusLAN.host[9].pingApp[102] "ping out-of-order rate (%)" 0
scalar BusLAN.host[9].pingApp[102] pingRxSeq:count 87
attr interpolationmode none
attr title "ping rx seq, count"
scalar BusLAN.host[9].pingApp[102] pingTxSeq:count 145
attr interpolationmode none
attr title "ping tx seq, count"
scalar BusLAN.host[9].pingApp[102] numOutOfOrderArrivals:last nan
attr interpolationmode none
attr title "ping out-of-order arrivals, last"
scalar BusLAN.host[9].pingApp[102] numLost:last 80
attr interpolationmode none
attr title "pings lost, last"
scalar BusLAN.host[9].pingApp[102] rtt:mean 0.011784978777486
attr interpolationmode none
attr title "ping round-trip time, mean"
attr unit s
scalar BusLAN.host[9].pingApp[103] "Pings sent" 194
scalar BusLAN.host[9].pingApp[103] "ping loss rate (%)" 72.680412371134
scalar BusLAN.host[9].pingApp[103] "ping out-of-order rate (%)" 0
scalar BusLAN.host[9].pingApp[103] pingRxSeq:count 45
attr interpolationmode none
attr title "ping rx seq, count"
scalar BusLAN.host[9].pingApp[103] pingTxSeq:count 148
attr interpolationmode none
attr title "ping tx seq, count"
scalar BusLAN.host[9].pingApp[103] numOutOfOrderArrivals:last nan
attr interpolationmode none
attr title "ping out-of-order arrivals, last"
scalar BusLAN.host[9].pingApp[103] numLost:last 139
attr interpolationmode none
attr title "pings lost, last"
scalar BusLAN.host[9].pingApp[103] rtt:mean 0.010946340164391
attr interpolationmode none
attr title "ping round-trip time, mean"
attr unit s
scalar BusLAN.host[9].pingApp[104] "Pings sent" 200
scalar BusLAN.host[9].pingApp[104] "ping loss rate (%)" 73
scalar BusLAN.host[9].pingApp[104] "ping out-of-order rate (%)" 0
scalar BusLAN.host[9].pingApp[104] pingRxSeq:count 43
attr interpolationmode none
attr title "ping rx seq, count"
scalar BusLAN.host[9].pingApp[104] pingTxSeq:count 148
attr interpolationmode none
attr title "ping tx seq, count"
scalar BusLAN.host[9].pingApp[104] numOutOfOrderArrivals:last nan
attr interpolationmode none
attr title "ping out-of-order arrivals, last"
scalar BusLAN.host[9].pingApp[104] numLost:last 146
attr interpolationmode none
attr title "pings lost, last"
scalar BusLAN.host[9].pingApp[104] rtt:mean 0.01235951168124
attr interpolationmode none
attr title "ping round-trip time, mean"
attr unit s
scalar BusLAN.host[9].pingApp[105] "Pings sent" 185
scalar BusLAN.host[9].pingApp[105] "ping loss rate (%)" 47.027027027027
scalar BusLAN.host[9].pingApp[105] "ping out-of-order rate (%)" 0
scalar BusLAN.host[9].pingApp[105] pingRxSeq:count 69
attr interpolationmode none
attr title "ping rx seq, count"
scalar BusLAN.host[9].pingApp[105] pingTxSeq:count 133
attr interpolationmode none
attr title "ping tx seq, count"
scalar BusLAN.host[9].pingApp[105] numOutOfOrderArrivals:last nan
attr interpolationmode none
attr title "ping out-of-order arrivals, last"
scalar BusLAN.host[9].pingApp[105] numLost:last 86
attr interpolationmode none
attr title "pings lost, last"
scalar BusLAN.host[9].pingApp[105] rtt:mean 0.010658452052397
attr interpolationmode none
attr title "ping round-trip time, mean"
attr unit s
scalar BusLAN.host[9].pingApp[106] "Pings sent" 195
scalar BusLAN.host[9].pingApp[106] "ping loss rate (%)" 73.846153846154
scalar BusLAN.host[9].pingApp[106] "ping out-of-order rate (%)" 0
scalar BusLAN.host[9].pingApp[106] pingRxSeq:count 38
attr interpolationmode none
attr title "ping rx seq, count"
scalar BusLAN.host[9].pingApp[106] pingTxSeq:count 147
attr interpolationmode none
attr title "ping tx seq, count"
scalar BusLAN.host[9].pingApp[106] numOutOfOrderArrivals:last nan
attr interpolationmode none
attr title "ping out-of-order arrivals, last"
scalar BusLAN.host[9].pingApp[106] numLost:last 140
attr interpolationmode none
attr title "pings lost, last"
scalar BusLAN.host[9].pingApp[106] rtt:mean 0.010904106404731
attr interpolationmode none
attr title "ping round-trip time, mean"
attr unit s
scalar BusLAN.host[9].pingApp[107] "Pings sent" 193
scalar BusLAN.host[9].pingApp[107] "ping loss rate (%)" 70.984455958549
scalar BusLAN.host[9].pingApp[107] "ping out-of-order rate (%)" 0.51813471502591
scalar BusLAN.host[9].pingApp[107] pingRxSeq:count 44
attr interpolationmode none
attr title "ping rx seq, count"
scalar BusLAN.host[9].pingApp[107] pingTxSeq:count 149
attr interpolationmode none
attr title "ping tx seq, count"
scalar BusLAN.host[9].pingApp[107] numOutOfOrderArrivals:last 1
attr interpolationmode none
attr title "ping out-of-order arrivals, last"
scalar BusLAN.host[9].pingApp[107] numLost:last 135
attr interpolationmode none
attr title "pings lost, last"
scalar BusLAN.host[9].pingApp[107] rtt:mean 0.01209889996205
attr interpolationmode none
attr title "ping round-trip time, mean"
attr unit s
scalar BusLAN.host[9].pingApp[108] "Pings sent" 190
scalar BusLAN.host[9].pingApp[108] "ping loss rate (%)" 43.684210526316
scalar BusLAN.host[9].pingApp[108] "ping out-of-order rate (%)" 0
scalar BusLAN.host[9].pingApp[108] pingRxSeq:count 89
attr interpolationmode none
attr title "ping rx seq, count"
scalar BusLAN.host[9].pingApp[108] pingTxSeq:count 146
attr interpolationmode none
attr title "ping tx seq, count"
scalar BusLAN.host[9].pingApp[108] numOutOfOrderArrivals:last nan
attr interpolationmode none
attr title "ping out-of-order arrivals, last"
scalar BusLAN.host[9].pingApp[108] numLost:last 83
attr interpolationmode none
attr title "pings lost, last"
scalar BusLAN.host[9].pingApp[108] rtt:mean 0.011874315997329
attr interpolationmode none
attr title "ping round-trip time, mean"
attr unit s
scalar BusLAN.host[9].pingApp[109] "Pings sent" 190
scalar BusLAN.host[9].pingApp[109] "ping loss rate (%)" 75.789473684211
scalar BusLAN.host[9].pingApp[109] "ping out-of-order rate (%)" 0
scalar BusLAN.host[9].pingApp[109] pingRxSeq:count 33
attr interpolationmode none
attr title "ping rx seq, count"
scalar BusLAN.host[9].pingApp[109] pingTxSeq:count 140
attr interpolationmode none
attr title "ping tx seq, count"
scalar BusLAN.host[9].pingApp[109] numOutOfOrderArrivals:last nan
attr interpolationmode none
attr title "ping out-of-order arrivals, last"
scalar BusLAN.host[9].pingApp[109] numLost:last 140
attr interpolationmode none
attr title "pings lost, last"
scalar BusLAN.host[9].pingApp[109] rtt:mean 0.011784491509
attr interpolationmode none
attr title "ping round-trip time, mean"
attr unit s
scalar BusLAN.host[9].pingApp[110] "Pings sent" 190
scalar BusLAN.host[9].pingApp[110] "ping loss rate (%)" 76.315789473684
scalar BusLAN.host[9].pingApp[110] "ping out-of-order rate (%)" 0
scalar BusLAN.host[9].pingApp[110] pingRxSeq:count 34
attr interpolationmode none
attr title "ping rx seq, count"
scalar BusLAN.host[9].pingApp[110] pingTxSeq:count 144
attr interpolationmode none
attr title "ping tx seq, count"
scalar BusLAN.host[9].pingApp[110] numOutOfOrderArrivals:last nan
attr interpolationmode none
attr title "ping out-of-order arrivals, last"
scalar BusLAN.host[9].pingApp[110] numLost:last 143
attr interpolationmode none
attr title "pings lost, last"
scalar BusLAN.host[9].pingApp[110] rtt:mean 0.012020102806421
attr interpolationmode none
attr title "ping round-trip time, mean"
attr unit s
scalar BusLAN.host[9].pingApp[111] "Pings sent" 208
scalar BusLAN.host[9].pingApp[111] "ping loss rate (%)" 37.019230769231
scalar BusLAN.host[9].pingApp[111] "ping out-of-order rate (%)" 0.48076923076923
scalar BusLAN.host[9].pingApp[111] pingRxSeq:count 101
attr interpolationmode none
attr title "ping rx seq, count"
scalar BusLAN.host[9].pingApp[111] pingTxSeq:count 159
attr interpolationmode none
attr title "ping tx seq, count"
scalar BusLAN.host[9].pingApp[111] numOutOfOrderArrivals:last 1
attr interpolationmode none
attr title "ping out-of-order arrivals, last"
scalar BusLAN.host[9].pingApp[111] numLost:last 74
attr interpolationmode none
attr title "pings lost, last"
scalar BusLAN.host[9].pingApp[111] rtt:mean 0.012074932427663
attr interpolationmode none
attr title "ping round-trip time, mean"
attr unit s
scalar BusLAN.host[9].pingApp[112] "Pings sent" 200
scalar BusLAN.host[9].pingApp[112] "ping loss rate (%)" 45
scalar BusLAN.host[9].pingApp[112] "ping out-of-order rate (%)" 0
scalar BusLAN.host[9].pingApp[112] pingRxSeq:count 77
attr interpolationmode none
attr title "ping rx seq, count"
scalar BusLAN.host[9].pingApp[112] pingTxSeq:count 149
attr interpolationmode none
attr title "ping tx seq, count"
scalar BusLAN.host[9].pingApp[112] numOutOfOrderArrivals:last nan
attr interpolationmode none
attr title "ping out-of-order arrivals, last"
scalar BusLAN.host[9].pingApp[112] numLost:last 88
attr interpolationmode none
attr title "pings lost, last"
scalar BusLAN.host[9].pingApp[112] rtt:mean 0.011506605803914
attr interpolationmode none
attr title "ping round-trip time, mean"
attr unit s
scalar BusLAN.host[9].pingApp[113] "Pings sent" 185
scalar BusLAN.host[9].pingApp[113] "ping loss rate (%)" 36.756756756757
scalar BusLAN.host[9].pingApp[113] "ping out-of-order rate (%)" 0
scalar BusLAN.host[9].pingApp[113] pingRxSeq:count 90
attr interpolationmode none
attr title "ping rx seq, count"
scalar BusLAN.host[9].pingApp[113] pingTxSeq:count 134
attr interpolationmode none
attr title "ping tx seq, count"
scalar BusLAN.host[9].pingApp[113] numOutOfOrderArrivals:last nan
attr interpolationmode none
attr title "ping out-of-order arrivals, last"
scalar BusLAN.host[9].pingApp[113] numLost:last 66
attr interpolationmode none
attr title "pings lost, last"
scalar BusLAN.host[9].pingApp[113] rtt:mean 0.011718719913194
attr interpolationmode none
attr title "ping round-trip time, mean"
attr unit s
scalar BusLAN.host[9].pingApp[114] "Pings sent" 189
scalar BusLAN.host[9].pingApp[114] "ping loss rate (%)" 72.486772486772
scalar BusLAN.host[9].pingApp[114] "ping out-of-order rate (%)" 0
scalar BusLAN.host[9].pingApp[114] pingRxSeq:count 41
attr interpolationmode none
attr title "ping rx seq, count"
scalar BusLAN.host[9].pingApp[114] pingTxSeq:count 145
attr interpolationmode none
attr title "ping tx seq, count"
scalar BusLAN.host[9].pingApp[114] numOutOfOrderArrivals:last nan
attr interpolationmode none
attr title "ping out-of-order arrivals, last"
scalar BusLAN.host[9].pingApp[114] numLost:last 137
attr interpolationmode none
attr title "pings lost, last"
scalar BusLAN.host[9].pingApp[114] rtt:mean 0.011261492487545
attr interpolationmode none
attr title "ping round-trip time, mean"
attr unit s
scalar BusLAN.host[9].pingApp[115] "Pings sent" 173
scalar BusLAN.host[9].pingApp[115] "ping loss rate (%)" 72.254335260116
scalar BusLAN.host[9].pingApp[115] "ping out-of-order rate (%)" 0
scalar BusLAN.host[9].pingApp[115] pingRxSeq:count 38
attr interpolationmode none
attr title "ping rx seq, count"
scalar BusLAN.host[9].pingApp[115] pingTxSeq:count 133
attr interpolationmode none
attr title "ping tx seq, count"
scalar BusLAN.host[9].pingApp[115] numOutOfOrderArrivals:last nan
attr interpolationmode none
attr title "ping out-of-order arrivals, last"
scalar BusLAN.host[9].pingApp[115] numLost:last 125
attr interpolationmode none
attr title "pings lost, last"
scalar BusLAN.host[9].pingApp[115] rtt:mean 0.011250781759679
attr interpolationmode none
attr title "ping round-trip time, mean"
attr unit s
scalar BusLAN.host[9].pingApp[116] "Pings sent" 194
scalar BusLAN.host[9].pingApp[116] "ping loss rate (%)" 42.268041237113
scalar BusLAN.host[9].pingApp[116] "ping out-of-order rate (%)" 0.51546391752577
scalar BusLAN.host[9].pingApp[116] pingRxSeq:count 77
attr interpolationmode none
attr title "ping rx seq, count"
scalar BusLAN.host[9].pingApp[116] pingTxSeq:count 142
attr interpolationmode none
attr title "ping tx seq, count"
scalar BusLAN.host[9].pingApp[116] numOutOfOrderArrivals:last nan
attr interpolationmode none
attr title "ping out-of-order arrivals, last"
scalar BusLAN.host[9].pingApp[116] numLost:last 82
attr interpolationmode none
attr title "pings lost, last"
scalar BusLAN.host[9].pingApp[116] rtt:mean 0.012358447286762
attr interpolationmode none
attr title "ping round-trip time, mean"
attr unit s
scalar BusLAN.host[9].pingApp[117] "Pings sent" 192
scalar BusLAN.host[9].pingApp[117] "ping loss rate (%)" 42.1875
scalar BusLAN.host[9].pingApp[117] "ping out-of-order rate (%)" 0
scalar BusLAN.host[9].pingApp[117] pingRxSeq:count 82
attr interpolationmode none
attr title "ping rx seq, count"
scalar BusLAN.host[9].pingApp[117] pingTxSeq:count 144
attr interpolationmode none
attr title "ping tx seq, count"
scalar BusLAN.host[9].pingApp[117] numOutOfOrderArrivals:last nan
attr interpolationmode none
attr title "ping out-of-order arrivals, last"
scalar BusLAN.host[9].pingApp[117] numLost:last 80
attr interpolationmode none
attr title "pings lost, last"
scalar BusLAN.host[9].pingApp[117] rtt:mean 0.011478054002149
attr interpolationmode none
attr title "ping round-trip time, mean"
attr unit s
scalar BusLAN.host[9].pingApp[118] "Pings sent" 190
scalar BusLAN.host[9].pingApp[118] "ping loss rate (%)" 69.473684210526
scalar BusLAN.host[9].pingApp[118] "ping out-of-order rate (%)" 0
scalar BusLAN.host[9].pingApp[118] pingRxSeq:count 45
attr interpolationmode none
attr title "ping rx seq, count"
scalar BusLAN.host[9].pingApp[118] pingTxSeq:count 143
attr interpolationmode none
attr title "ping tx seq, count"
scalar BusLAN.host[9].pingApp[118] numOutOfOrderArrivals:last nan
attr interpolationmode none
attr title "ping out-of-order arrivals, last"
scalar BusLAN.host[9].pingApp[118] numLost:last 131
attr interpolationmode none
attr title "pings lost, last"
scalar BusLAN.host[9].pingApp[118] rtt:mean 0.011217236926875
attr interpolationmode none
attr title "ping round-trip time, mean"
attr unit s
scalar BusLAN.host[9].pingApp[119] "Pings sent" 183
scalar BusLAN.host[9].pingApp[119] "ping loss rate (%)" 44.808743169399
scalar BusLAN.host[9].pingApp[119] "ping out-of-order rate (%)" 0
scalar BusLAN.host[9].pingApp[119] pingRxSeq:count 78
attr interpolationmode none
attr title "ping rx seq, count"
scalar BusLAN.host[9].pingApp[119] pingTxSeq:count 138
attr interpolationmode none
attr title "ping tx seq, count"
scalar BusLAN.host[9].pingApp[119] numOutOfOrderArrivals:last nan
attr interpolationmode none
attr title "ping out-of-order arrivals, last"
scalar BusLAN.host[9].pingApp[119] numLost:last 82
attr interpolationmode none
attr title "pings lost, last"
scalar BusLAN.host[9].pingApp[119] rtt:mean 0.011601011124118
attr interpolationmode none
attr title "ping round-trip time, mean"
attr unit s
scalar BusLAN.host[9].pingApp[120] "Pings sent" 194
scalar BusLAN.host[9].pingApp[120] "ping loss rate (%)" 46.39175257732
scalar BusLAN.host[9].pingApp[120] "ping out-of-order rate (%)" 0.51546391752577
scalar BusLAN.host[9].pingApp[120] pingRxSeq:count 82
attr interpolationmode none
attr title "ping rx seq, count"
scalar BusLAN.host[9].pingApp[120] pingTxSeq:count 149
attr interpolationmode none
attr title "ping tx seq, count"
scalar BusLAN.host[9].pingApp[120] numOutOfOrderArrivals:last 1
attr interpolationmode none
attr title "ping out-of-order arrivals, last"
scalar BusLAN.host[9].pingApp[120] numLost:last 87
attr interpolationmode none
attr title "pings lost, last"
scalar BusLAN.host[9].pingApp[120] rtt:mean 0.011855850393795
attr interpolationmode none
attr title "ping round-trip time, mean"
attr unit s
scalar BusLAN.host[9].pingApp[121] "Pings sent" 186
scalar BusLAN.host[9].pingApp[121] "ping loss rate (%)" 72.043010752688
scalar BusLAN.host[9].pingApp[121] "ping out-of-order rate (%)" 0
scalar BusLAN.host[9].pingApp[121] pingRxSeq:count 34
attr interpolationmode none
attr title "ping rx seq, count"
scalar BusLAN.host[9].pingApp[121] pingTxSeq:count 135
attr interpolationmode none
attr title "ping tx seq, count"
scalar BusLAN.host[9].pingApp[121] numOutOfOrderArrivals:last nan
attr interpolationmode none
attr title "ping out-of-order arrivals, last"
scalar BusLAN.host[9].pingApp[121] numLost:last 133
attr interpolationmode none
attr title "pings lost, last"
scalar BusLAN.host[9].pingApp[121] rtt:mean 0.012013299614429
attr interpolationmode none
attr title "ping round-trip time, mean"
attr unit s
scalar BusLAN.host[9].pingApp[122] "Pings sent" 191
scalar BusLAN.host[9].pingApp[122] "ping loss rate (%)" 71.727748691099
scalar BusLAN.host[9].pingApp[122] "ping out-of-order rate (%)" 0
scalar BusLAN.host[9].pingApp[122] pingRxSeq:count 40
attr interpolationmode none
attr title "ping rx seq, count"
scalar BusLAN.host[9].pingApp[122] pingTxSeq:count 144
attr interpolationmode none
attr title "ping tx seq, count"
scalar BusLAN.host[9].pingApp[122] numOutOfOrderArrivals:last nan
attr interpolationmode none
attr title "ping out-of-order arrivals, last"
scalar BusLAN.host[9].pingApp[122] numLost:last 133
attr interpolationmode none
attr title "pings lost, last"
scalar BusLAN.host[9].pingApp[122] rtt:mean 0.012366485530708
attr interpolationmode none
attr title "ping round-trip time, mean"
attr unit s
scalar BusLAN.host[9].pingApp[123] "Pings sent" 187
scalar BusLAN.host[9].pingApp[123] "ping loss rate (%)" 72.727272727273
scalar BusLAN.host[9].pingApp[123] "ping out-of-order rate (%)" 0
scalar BusLAN.host[9].pingApp[123] pingRxSeq:count 37
attr interpolationmode none
attr title "ping rx seq, count"
scalar BusLAN.host[9].pingApp[123] pingTxSeq:count 146
attr interpolationmode none
attr title "ping tx seq, count"
scalar BusLAN.host[9].pingApp[123] numOutOfOrderArrivals:last nan
attr interpolationmode none
attr title "ping out-of-order arrivals, last"
scalar BusLAN.host[9].pingApp[123] numLost:last 136
attr interpolationmode none
attr title "pings lost, last"
scalar BusLAN.host[9].pingApp[123] rtt:mean 0.01148718047935
attr interpolationmode none
attr title "ping round-trip time, mean"
attr unit s
scalar BusLAN.host[9].pingApp[124] "Pings sent" 200
scalar BusLAN.host[9].pingApp[124] "ping loss rate (%)" 75
scalar BusLAN.host[9].pingApp[124] "ping out-of-order rate (%)" 0
scalar BusLAN.host[9].pingApp[124] pingRxSeq:count 41
attr interpolationmode none
attr title "ping rx seq, count"
scalar BusLAN.host[9].pingApp[124] pingTxSeq:count 155
attr interpolationmode none
attr title "ping tx seq, count"
scalar BusLAN.host[9].pingApp[124] numOutOfOrderArrivals:last nan
attr interpolationmode none
attr title "ping out-of-order arrivals, last"
scalar BusLAN.host[9].pingApp[124] numLost:last 150
attr interpolationmode none
attr title "pings lost, last"
scalar BusLAN.host[9].pingApp[124] rtt:mean 0.011933761467826
attr interpolationmode none
attr title "ping round-trip time, mean"
attr unit s
scalar BusLAN.host[9].pingApp[125] "Pings sent" 186
scalar BusLAN.host[9].pingApp[125] "ping loss rate (%)" 75.806451612903
scalar BusLAN.host[9].pingApp[125] "ping out-of-order rate (%)" 0
scalar BusLAN.host[9].pingApp[125] pingRxSeq:count 32
attr interpolationmode none
attr title "ping rx seq, count"
scalar BusLAN.host[9].pingApp[125] pingTxSeq:count 139
attr interpolationmode none
attr title "ping tx seq, count"
scalar BusLAN.host[9].pingApp[125] numOutOfOrderArrivals:last nan
attr interpolationmode none
attr title "ping out-of-order arrivals, last"
scalar BusLAN.host[9].pingApp[125] numLost:last 125
attr interpolationmode none
attr title "pings lost, last"
scalar BusLAN.host[9].pingApp[125] rtt:mean 0.011236031816667
attr interpolationmode none
attr title "ping round-trip time, mean"
attr unit s
scalar BusLAN.bus "simulated time" 20
scalar BusLAN.bus "messages handled" 0
scalar BusLAN.bus messages/sec 0

