version 2
run BusLAN10-datarate-2-20180110-20:22:34-6208
attr configname BusLAN10-datarate
attr datetime 20180110-20:22:34
attr experiment BusLAN10-datarate
attr inifile BusLAN.ini
attr iterationvars $pa=126
attr iterationvarsf pa=126-
attr measurement $pa=126
attr network BusLAN
attr processid 6208
attr repetition 0
attr replication #0
attr resultdir results
attr runnumber 2
attr seedset 2
itervar pa 126
param *.numHosts 10
param **.datarate 100Mbps
param **.host[*].pingApp[*].sendInterval "truncnormal(50ms, 25ms)"
param **.host[*].pingApp[*].packetSize "truncnormal(1024B, 512B)"
param **.queueType "\"DropTailQueue\""
param **.frameCapacity 10
param **.mtu 1024B
param **.host[*].numPingApps 126
param **.host[*].pingApp[*].typename "\"PingApp\""
param **.host[*].pingApp[*].count 1
param **.host[*].pingApp[*].startTime "truncnormal(200ms, 100ms)"
param **.host[*].pingApp[*].destAddr "\"*\""

scalar BusLAN.host[0].networkLayer.arp sentReply:count 0
attr title "ARP replies sent, count"
scalar BusLAN.host[0].networkLayer.arp sentReq:count 0
attr title "ARP request sent, count"
scalar BusLAN.host[0].networkLayer.arp failedARPResolution:count 0
attr title "ARP failed resolutions, count"
scalar BusLAN.host[0].networkLayer.arp completedARPResolution:count 0
attr title "ARP completed resolutions, count"
scalar BusLAN.host[0].networkLayer.arp initiatedARPResolution:count 0
attr title "ARP initiated resolutions, count"
scalar BusLAN.host[0].lo0.lo droppedPkBitError:count 0
attr interpolationmode none
attr source dropPkBitError
attr title "packets dropped/bit error, count"
scalar BusLAN.host[0].lo0.lo droppedPkBitError:sum(packetBytes) 0
attr interpolationmode none
attr source dropPkBitError
attr title "packets dropped/bit error, sum(packetBytes)"
scalar BusLAN.host[0].lo0.lo rcvdPkFromHL:count 11510
attr interpolationmode none
attr source packetReceivedFromUpper
attr title "packets received from higher layer, count"
scalar BusLAN.host[0].lo0.lo rcvdPkFromHL:sum(packetBytes) 7928058
attr interpolationmode none
attr source packetReceivedFromUpper
attr title "packets received from higher layer, sum(packetBytes)"
scalar BusLAN.host[0].lo0.lo passedUpPk:count 11510
attr interpolationmode none
attr source packetSentToUpper
attr title "packets passed to higher layer, count"
scalar BusLAN.host[0].lo0.lo passedUpPk:sum(packetBytes) 7928058
attr interpolationmode none
attr source packetSentToUpper
attr title "packets passed to higher layer, sum(packetBytes)"
scalar BusLAN.host[0].eth[0].queue.pauseQueue queueLength:max nan
attr interpolationmode sample-hold
attr title "queue length, max"
scalar BusLAN.host[0].eth[0].queue.pauseQueue queueLength:timeavg nan
attr interpolationmode sample-hold
attr title "queue length, timeavg"
statistic BusLAN.host[0].eth[0].queue.pauseQueue queueingTime:histogram
field count 0
field mean nan
field stddev nan
field min nan
field max nan
field sum 0
field sqrsum 0
attr interpolationmode none
attr title "queueing time, histogram"
bin	-inf	0
bin	-0.5	0
bin	-0.46666666666667	0
bin	-0.43333333333333	0
bin	-0.4	0
bin	-0.36666666666667	0
bin	-0.33333333333333	0
bin	-0.3	0
bin	-0.26666666666667	0
bin	-0.23333333333333	0
bin	-0.2	0
bin	-0.16666666666667	0
bin	-0.13333333333333	0
bin	-0.1	0
bin	-0.066666666666667	0
bin	-0.033333333333333	0
bin	0	0
bin	0.033333333333333	0
bin	0.066666666666667	0
bin	0.1	0
bin	0.13333333333333	0
bin	0.16666666666667	0
bin	0.2	0
bin	0.23333333333333	0
bin	0.26666666666667	0
bin	0.3	0
bin	0.33333333333333	0
bin	0.36666666666667	0
bin	0.4	0
bin	0.43333333333333	0
bin	0.46666666666667	0
bin	0.5	0
scalar BusLAN.host[0].eth[0].queue.pauseQueue dropPk:count 0
attr interpolationmode none
attr source dropPkByQueue
attr title "dropped packets, count"
scalar BusLAN.host[0].eth[0].queue.pauseQueue dropPk:sum(packetBytes) 0
attr interpolationmode none
attr source dropPkByQueue
attr title "dropped packets, sum(packetBytes)"
scalar BusLAN.host[0].eth[0].queue.pauseQueue rcvdPk:count 0
attr interpolationmode none
attr title "received packets, count"
scalar BusLAN.host[0].eth[0].queue.pauseQueue rcvdPk:sum(packetBytes) 0
attr interpolationmode none
attr title "received packets, sum(packetBytes)"
scalar BusLAN.host[0].eth[0].queue.dataQueue queueLength:max 10
attr interpolationmode sample-hold
attr title "queue length, max"
scalar BusLAN.host[0].eth[0].queue.dataQueue queueLength:timeavg 0.47087097570998
attr interpolationmode sample-hold
attr title "queue length, timeavg"
statistic BusLAN.host[0].eth[0].queue.dataQueue queueingTime:histogram
field count 104259
field mean 6.7743572113667e-005
field stddev 7.6922699755851e-005
field min 0
field max 0.000646251838
field sum 7.0628770849988
field sqrsum 0.0010953697161097
attr interpolationmode none
attr title "queueing time, histogram"
bin	-inf	0
bin	-0.000146332986	0
bin	-0.0001268219212	0
bin	-0.0001073108564	0
bin	-8.77997916e-005	0
bin	-6.82887268e-005	0
bin	-4.8777662e-005	0
bin	-2.92665972e-005	0
bin	-9.7555324e-006	41442
bin	9.7555324e-006	3645
bin	2.92665972e-005	3554
bin	4.8777662e-005	3552
bin	6.82887268e-005	25479
bin	8.77997916e-005	4676
bin	0.0001073108564	4068
bin	0.0001268219212	3479
bin	0.000146332986	3011
bin	0.0001658440508	3316
bin	0.0001853551156	1904
bin	0.0002048661804	1469
bin	0.0002243772452	1145
bin	0.00024388831	883
bin	0.0002633993748	634
bin	0.0002829104396	479
bin	0.0003024215044	380
bin	0.0003219325692	286
bin	0.000341443634	212
bin	0.0003609546988	166
bin	0.0003804657636	126
bin	0.0003999768284	89
bin	0.0004194878932	82
bin	0.000438998958	182
scalar BusLAN.host[0].eth[0].queue.dataQueue dropPk:count 13
attr interpolationmode none
attr source dropPkByQueue
attr title "dropped packets, count"
scalar BusLAN.host[0].eth[0].queue.dataQueue dropPk:sum(packetBytes) 7983
attr interpolationmode none
attr source dropPkByQueue
attr title "dropped packets, sum(packetBytes)"
scalar BusLAN.host[0].eth[0].queue.dataQueue rcvdPk:count 104274
attr interpolationmode none
attr title "received packets, count"
scalar BusLAN.host[0].eth[0].queue.dataQueue rcvdPk:sum(packetBytes) 74262472
attr interpolationmode none
attr title "received packets, sum(packetBytes)"
scalar BusLAN.host[0].eth[0].mac "simulated time" 20
scalar BusLAN.host[0].eth[0].mac full-duplex 1
scalar BusLAN.host[0].eth[0].mac "frames/sec sent" 6970.05
scalar BusLAN.host[0].eth[0].mac "frames/sec rcvd" 6972.65
scalar BusLAN.host[0].eth[0].mac "bits/sec sent" 39707636.8
scalar BusLAN.host[0].eth[0].mac "bits/sec rcvd" 39713494.8
scalar BusLAN.host[0].eth[0].mac "rx channel idle (%)" -260.4557692
scalar BusLAN.host[0].eth[0].mac "rx channel utilization (%)" 360.4557692
scalar BusLAN.host[0].eth[0].mac rxPkFromHL:count 104259
attr interpolationmode none
attr source rxPkFromHL
attr title "packet bytes from higher layer, count"
scalar BusLAN.host[0].eth[0].mac rxPkFromHL:sum(packetBytes) 74253663
attr interpolationmode none
attr source rxPkFromHL
attr title "packet bytes from higher layer, sum(packetBytes)"
scalar BusLAN.host[0].eth[0].mac rxPausePkUnits:count 0
attr interpolationmode none
attr title "pause units received, count"
scalar BusLAN.host[0].eth[0].mac rxPausePkUnits:sum 0
attr interpolationmode none
attr title "pause units received, sum"
scalar BusLAN.host[0].eth[0].mac txPausePkUnits:count 0
attr interpolationmode none
attr title "pause units sent, count"
scalar BusLAN.host[0].eth[0].mac txPausePkUnits:sum 0
attr interpolationmode none
attr title "pause units sent, sum"
scalar BusLAN.host[0].eth[0].mac txPk:count 104258
attr interpolationmode none
attr source txPk
attr title "packets transmitted, count"
scalar BusLAN.host[0].eth[0].mac txPk:sum(packetBytes) 74252625
attr interpolationmode none
attr source txPk
attr title "packets transmitted, sum(packetBytes)"
scalar BusLAN.host[0].eth[0].mac droppedPkNotForUs:count 838760
attr interpolationmode none
attr source dropPkNotForUs
attr title "packets dropped/not for us, count"
scalar BusLAN.host[0].eth[0].mac droppedPkNotForUs:sum(packetBytes) 601000571
attr interpolationmode none
attr source dropPkNotForUs
attr title "packets dropped/not for us, sum(packetBytes)"
scalar BusLAN.host[0].eth[0].mac droppedPkBitError:count 0
attr interpolationmode none
attr source dropPkBitError
attr title "packets dropped/bit error, count"
scalar BusLAN.host[0].eth[0].mac droppedPkBitError:sum(packetBytes) 0
attr interpolationmode none
attr source dropPkBitError
attr title "packets dropped/bit error, sum(packetBytes)"
scalar BusLAN.host[0].eth[0].mac droppedPkIfaceDown:count 0
attr interpolationmode none
attr source dropPkIfaceDown
attr title "packets dropped/interface down, count"
scalar BusLAN.host[0].eth[0].mac droppedPkIfaceDown:sum(packetBytes) 0
attr interpolationmode none
attr source dropPkIfaceDown
attr title "packets dropped/interface down, sum(packetBytes)"
scalar BusLAN.host[0].eth[0].mac rxPkOk:count 104267
attr interpolationmode none
attr source rxPkOk
attr title "packets received OK, count"
scalar BusLAN.host[0].eth[0].mac rxPkOk:sum(packetBytes) 74261268
attr interpolationmode none
attr source rxPkOk
attr title "packets received OK, sum(packetBytes)"
scalar BusLAN.host[0].eth[0].mac passedUpPk:count 104267
attr interpolationmode none
attr source packetSentToUpper
attr title "packets passed to higher layer, count"
scalar BusLAN.host[0].eth[0].mac passedUpPk:sum(packetBytes) 74261268
attr interpolationmode none
attr source packetSentToUpper
attr title "packets passed to higher layer, sum(packetBytes)"
scalar BusLAN.host[0].eth[0].encap pauseSent:count 0
attr title "pause sent, count"
scalar BusLAN.host[0].eth[0].encap pauseSent:sum 0
attr title "pause sent, sum"
scalar BusLAN.host[0].eth[0].encap decapPk:count 104267
attr interpolationmode none
attr source decapPk
attr title "packets decapsulated, count"
scalar BusLAN.host[0].eth[0].encap decapPk:sum(packetBytes) 72362353
attr interpolationmode none
attr source decapPk
attr title "packets decapsulated, sum(packetBytes)"
scalar BusLAN.host[0].eth[0].encap encapPk:count 104274
attr interpolationmode none
attr source encapPk
attr title "packets encapsulated, count"
scalar BusLAN.host[0].eth[0].encap encapPk:sum(packetBytes) 72363409
attr interpolationmode none
attr source encapPk
attr title "packets encapsulated, sum(packetBytes)"
scalar BusLAN.host[0].pingApp[0] "Pings sent" 390
scalar BusLAN.host[0].pingApp[0] "ping loss rate (%)" 0
scalar BusLAN.host[0].pingApp[0] "ping out-of-order rate (%)" 0
scalar BusLAN.host[0].pingApp[0] pingRxSeq:count 298
attr interpolationmode none
attr title "ping rx seq, count"
scalar BusLAN.host[0].pingApp[0] pingTxSeq:count 298
attr interpolationmode none
attr title "ping tx seq, count"
scalar BusLAN.host[0].pingApp[0] numOutOfOrderArrivals:last nan
attr interpolationmode none
attr title "ping out-of-order arrivals, last"
scalar BusLAN.host[0].pingApp[0] numLost:last nan
attr interpolationmode none
attr title "pings lost, last"
scalar BusLAN.host[0].pingApp[0] rtt:mean 0.00029367914286207
attr interpolationmode none
attr title "ping round-trip time, mean"
attr unit s
scalar BusLAN.host[0].pingApp[1] "Pings sent" 384
scalar BusLAN.host[0].pingApp[1] "ping loss rate (%)" 0
scalar BusLAN.host[0].pingApp[1] "ping out-of-order rate (%)" 0
scalar BusLAN.host[0].pingApp[1] pingRxSeq:count 286
attr interpolationmode none
attr title "ping rx seq, count"
scalar BusLAN.host[0].pingApp[1] pingTxSeq:count 286
attr interpolationmode none
attr title "ping tx seq, count"
scalar BusLAN.host[0].pingApp[1] numOutOfOrderArrivals:last nan
attr interpolationmode none
attr title "ping out-of-order arrivals, last"
scalar BusLAN.host[0].pingApp[1] numLost:last nan
attr interpolationmode none
attr title "pings lost, last"
scalar BusLAN.host[0].pingApp[1] rtt:mean 0.00035612722254167
attr interpolationmode none
attr title "ping round-trip time, mean"
attr unit s
scalar BusLAN.host[0].pingApp[2] "Pings sent" 387
scalar BusLAN.host[0].pingApp[2] "ping loss rate (%)" 0
scalar BusLAN.host[0].pingApp[2] "ping out-of-order rate (%)" 0
scalar BusLAN.host[0].pingApp[2] pingRxSeq:count 283
attr interpolationmode none
attr title "ping rx seq, count"
scalar BusLAN.host[0].pingApp[2] pingTxSeq:count 283
attr interpolationmode none
attr title "ping tx seq, count"
scalar BusLAN.host[0].pingApp[2] numOutOfOrderArrivals:last nan
attr interpolationmode none
attr title "ping out-of-order arrivals, last"
scalar BusLAN.host[0].pingApp[2] numLost:last nan
attr interpolationmode none
attr title "pings lost, last"
scalar BusLAN.host[0].pingApp[2] rtt:mean 0.00022345469748819
attr interpolationmode none
attr title "ping round-trip time, mean"
attr unit s
scalar BusLAN.host[0].pingApp[3] "Pings sent" 372
scalar BusLAN.host[0].pingApp[3] "ping loss rate (%)" 0
scalar BusLAN.host[0].pingApp[3] "ping out-of-order rate (%)" 0
scalar BusLAN.host[0].pingApp[3] pingRxSeq:count 285
attr interpolationmode none
attr title "ping rx seq, count"
scalar BusLAN.host[0].pingApp[3] pingTxSeq:count 285
attr interpolationmode none
attr title "ping tx seq, count"
scalar BusLAN.host[0].pingApp[3] numOutOfOrderArrivals:last nan
attr interpolationmode none
attr title "ping out-of-order arrivals, last"
scalar BusLAN.host[0].pingApp[3] numLost:last nan
attr interpolationmode none
attr title "pings lost, last"
scalar BusLAN.host[0].pingApp[3] rtt:mean 0.00022210307285659
attr interpolationmode none
attr title "ping round-trip time, mean"
attr unit s
scalar BusLAN.host[0].pingApp[4] "Pings sent" 390
scalar BusLAN.host[0].pingApp[4] "ping loss rate (%)" 0
scalar BusLAN.host[0].pingApp[4] "ping out-of-order rate (%)" 0
scalar BusLAN.host[0].pingApp[4] pingRxSeq:count 293
attr interpolationmode none
attr title "ping rx seq, count"
scalar BusLAN.host[0].pingApp[4] pingTxSeq:count 293
attr interpolationmode none
attr title "ping tx seq, count"
scalar BusLAN.host[0].pingApp[4] numOutOfOrderArrivals:last nan
attr interpolationmode none
attr title "ping out-of-order arrivals, last"
scalar BusLAN.host[0].pingApp[4] numLost:last nan
attr interpolationmode none
attr title "pings lost, last"
scalar BusLAN.host[0].pingApp[4] rtt:mean 0.00016511953166412
attr interpolationmode none
attr title "ping round-trip time, mean"
attr unit s
scalar BusLAN.host[0].pingApp[5] "Pings sent" 401
scalar BusLAN.host[0].pingApp[5] "ping loss rate (%)" 0
scalar BusLAN.host[0].pingApp[5] "ping out-of-order rate (%)" 0
scalar BusLAN.host[0].pingApp[5] pingRxSeq:count 306
attr interpolationmode none
attr title "ping rx seq, count"
scalar BusLAN.host[0].pingApp[5] pingTxSeq:count 306
attr interpolationmode none
attr title "ping tx seq, count"
scalar BusLAN.host[0].pingApp[5] numOutOfOrderArrivals:last nan
attr interpolationmode none
attr title "ping out-of-order arrivals, last"
scalar BusLAN.host[0].pingApp[5] numLost:last nan
attr interpolationmode none
attr title "pings lost, last"
scalar BusLAN.host[0].pingApp[5] rtt:mean 0.0003047232855371
attr interpolationmode none
attr title "ping round-trip time, mean"
attr unit s
scalar BusLAN.host[0].pingApp[6] "Pings sent" 383
scalar BusLAN.host[0].pingApp[6] "ping loss rate (%)" 0
scalar BusLAN.host[0].pingApp[6] "ping out-of-order rate (%)" 0
scalar BusLAN.host[0].pingApp[6] pingRxSeq:count 298
attr interpolationmode none
attr title "ping rx seq, count"
scalar BusLAN.host[0].pingApp[6] pingTxSeq:count 298
attr interpolationmode none
attr title "ping tx seq, count"
scalar BusLAN.host[0].pingApp[6] numOutOfOrderArrivals:last nan
attr interpolationmode none
attr title "ping out-of-order arrivals, last"
scalar BusLAN.host[0].pingApp[6] numLost:last nan
attr interpolationmode none
attr title "pings lost, last"
scalar BusLAN.host[0].pingApp[6] rtt:mean 0.00019845015351128
attr interpolationmode none
attr title "ping round-trip time, mean"
attr unit s
scalar BusLAN.host[0].pingApp[7] "Pings sent" 405
scalar BusLAN.host[0].pingApp[7] "ping loss rate (%)" 0
scalar BusLAN.host[0].pingApp[7] "ping out-of-order rate (%)" 0
scalar BusLAN.host[0].pingApp[7] pingRxSeq:count 301
attr interpolationmode none
attr title "ping rx seq, count"
scalar BusLAN.host[0].pingApp[7] pingTxSeq:count 301
attr interpolationmode none
attr title "ping tx seq, count"
scalar BusLAN.host[0].pingApp[7] numOutOfOrderArrivals:last nan
attr interpolationmode none
attr title "ping out-of-order arrivals, last"
scalar BusLAN.host[0].pingApp[7] numLost:last nan
attr interpolationmode none
attr title "pings lost, last"
scalar BusLAN.host[0].pingApp[7] rtt:mean 0.00023881980230855
attr interpolationmode none
attr title "ping round-trip time, mean"
attr unit s
scalar BusLAN.host[0].pingApp[8] "Pings sent" 393
scalar BusLAN.host[0].pingApp[8] "ping loss rate (%)" 0
scalar BusLAN.host[0].pingApp[8] "ping out-of-order rate (%)" 0
scalar BusLAN.host[0].pingApp[8] pingRxSeq:count 299
attr interpolationmode none
attr title "ping rx seq, count"
scalar BusLAN.host[0].pingApp[8] pingTxSeq:count 299
attr interpolationmode none
attr title "ping tx seq, count"
scalar BusLAN.host[0].pingApp[8] numOutOfOrderArrivals:last nan
attr interpolationmode none
attr title "ping out-of-order arrivals, last"
scalar BusLAN.host[0].pingApp[8] numLost:last nan
attr interpolationmode none
attr title "pings lost, last"
scalar BusLAN.host[0].pingApp[8] rtt:mean 9.689470745977e-005
attr interpolationmode none
attr title "ping round-trip time, mean"
attr unit s
scalar BusLAN.host[0].pingApp[9] "Pings sent" 389
scalar BusLAN.host[0].pingApp[9] "ping loss rate (%)" 0
scalar BusLAN.host[0].pingApp[9] "ping out-of-order rate (%)" 0
scalar BusLAN.host[0].pingApp[9] pingRxSeq:count 300
attr interpolationmode none
attr title "ping rx seq, count"
scalar BusLAN.host[0].pingApp[9] pingTxSeq:count 300
attr interpolationmode none
attr title "ping tx seq, count"
scalar BusLAN.host[0].pingApp[9] numOutOfOrderArrivals:last nan
attr interpolationmode none
attr title "ping out-of-order arrivals, last"
scalar BusLAN.host[0].pingApp[9] numLost:last nan
attr interpolationmode none
attr title "pings lost, last"
scalar BusLAN.host[0].pingApp[9] rtt:mean 0.00032606527377206
attr interpolationmode none
attr title "ping round-trip time, mean"
attr unit s
scalar BusLAN.host[0].pingApp[10] "Pings sent" 390
scalar BusLAN.host[0].pingApp[10] "ping loss rate (%)" 0
scalar BusLAN.host[0].pingApp[10] "ping out-of-order rate (%)" 0
scalar BusLAN.host[0].pingApp[10] pingRxSeq:count 295
attr interpolationmode none
attr title "ping rx seq, count"
scalar BusLAN.host[0].pingApp[10] pingTxSeq:count 295
attr interpolationmode none
attr title "ping tx seq, count"
scalar BusLAN.host[0].pingApp[10] numOutOfOrderArrivals:last nan
attr interpolationmode none
attr title "ping out-of-order arrivals, last"
scalar BusLAN.host[0].pingApp[10] numLost:last nan
attr interpolationmode none
attr title "pings lost, last"
scalar BusLAN.host[0].pingApp[10] rtt:mean 0.0002195181427318
attr interpolationmode none
attr title "ping round-trip time, mean"
attr unit s
scalar BusLAN.host[0].pingApp[11] "Pings sent" 379
scalar BusLAN.host[0].pingApp[11] "ping loss rate (%)" 0
scalar BusLAN.host[0].pingApp[11] "ping out-of-order rate (%)" 0
scalar BusLAN.host[0].pingApp[11] pingRxSeq:count 287
attr interpolationmode none
attr title "ping rx seq, count"
scalar BusLAN.host[0].pingApp[11] pingTxSeq:count 287
attr interpolationmode none
attr title "ping tx seq, count"
scalar BusLAN.host[0].pingApp[11] numOutOfOrderArrivals:last nan
attr interpolationmode none
attr title "ping out-of-order arrivals, last"
scalar BusLAN.host[0].pingApp[11] numLost:last nan
attr interpolationmode none
attr title "pings lost, last"
scalar BusLAN.host[0].pingApp[11] rtt:mean 0.00031668032761069
attr interpolationmode none
attr title "ping round-trip time, mean"
attr unit s
scalar BusLAN.host[0].pingApp[12] "Pings sent" 372
scalar BusLAN.host[0].pingApp[12] "ping loss rate (%)" 0
scalar BusLAN.host[0].pingApp[12] "ping out-of-order rate (%)" 0
scalar BusLAN.host[0].pingApp[12] pingRxSeq:count 276
attr interpolationmode none
attr title "ping rx seq, count"
scalar BusLAN.host[0].pingApp[12] pingTxSeq:count 276
attr interpolationmode none
attr title "ping tx seq, count"
scalar BusLAN.host[0].pingApp[12] numOutOfOrderArrivals:last nan
attr interpolationmode none
attr title "ping out-of-order arrivals, last"
scalar BusLAN.host[0].pingApp[12] numLost:last nan
attr interpolationmode none
attr title "pings lost, last"
scalar BusLAN.host[0].pingApp[12] rtt:mean 0.0002110687274332
attr interpolationmode none
attr title "ping round-trip time, mean"
attr unit s
scalar BusLAN.host[0].pingApp[13] "Pings sent" 387
scalar BusLAN.host[0].pingApp[13] "ping loss rate (%)" 0
scalar BusLAN.host[0].pingApp[13] "ping out-of-order rate (%)" 0
scalar BusLAN.host[0].pingApp[13] pingRxSeq:count 294
attr interpolationmode none
attr title "ping rx seq, count"
scalar BusLAN.host[0].pingApp[13] pingTxSeq:count 294
attr interpolationmode none
attr title "ping tx seq, count"
scalar BusLAN.host[0].pingApp[13] numOutOfOrderArrivals:last nan
attr interpolationmode none
attr title "ping out-of-order arrivals, last"
scalar BusLAN.host[0].pingApp[13] numLost:last nan
attr interpolationmode none
attr title "pings lost, last"
scalar BusLAN.host[0].pingApp[13] rtt:mean 0.00026042419725468
attr interpolationmode none
attr title "ping round-trip time, mean"
attr unit s
scalar BusLAN.host[0].pingApp[14] "Pings sent" 378
scalar BusLAN.host[0].pingApp[14] "ping loss rate (%)" 0
scalar BusLAN.host[0].pingApp[14] "ping out-of-order rate (%)" 0
scalar BusLAN.host[0].pingApp[14] pingRxSeq:count 284
attr interpolationmode none
attr title "ping rx seq, count"
scalar BusLAN.host[0].pingApp[14] pingTxSeq:count 284
attr interpolationmode none
attr title "ping tx seq, count"
scalar BusLAN.host[0].pingApp[14] numOutOfOrderArrivals:last nan
attr interpolationmode none
attr title "ping out-of-order arrivals, last"
scalar BusLAN.host[0].pingApp[14] numLost:last nan
attr interpolationmode none
attr title "pings lost, last"
scalar BusLAN.host[0].pingApp[14] rtt:mean 0.00020000815916996
attr interpolationmode none
attr title "ping round-trip time, mean"
attr unit s
scalar BusLAN.host[0].pingApp[15] "Pings sent" 387
scalar BusLAN.host[0].pingApp[15] "ping loss rate (%)" 0.25839793281654
scalar BusLAN.host[0].pingApp[15] "ping out-of-order rate (%)" 0
scalar BusLAN.host[0].pingApp[15] pingRxSeq:count 294
attr interpolationmode none
attr title "ping rx seq, count"
scalar BusLAN.host[0].pingApp[15] pingTxSeq:count 295
attr interpolationmode none
attr title "ping tx seq, count"
scalar BusLAN.host[0].pingApp[15] numOutOfOrderArrivals:last nan
attr interpolationmode none
attr title "ping out-of-order arrivals, last"
scalar BusLAN.host[0].pingApp[15] numLost:last nan
attr interpolationmode none
attr title "pings lost, last"
scalar BusLAN.host[0].pingApp[15] rtt:mean 0.00018474794704314
attr interpolationmode none
attr title "ping round-trip time, mean"
attr unit s
scalar BusLAN.host[0].pingApp[16] "Pings sent" 387
scalar BusLAN.host[0].pingApp[16] "ping loss rate (%)" 0
scalar BusLAN.host[0].pingApp[16] "ping out-of-order rate (%)" 0
scalar BusLAN.host[0].pingApp[16] pingRxSeq:count 291
attr interpolationmode none
attr title "ping rx seq, count"
scalar BusLAN.host[0].pingApp[16] pingTxSeq:count 291
attr interpolationmode none
attr title "ping tx seq, count"
scalar BusLAN.host[0].pingApp[16] numOutOfOrderArrivals:last nan
attr interpolationmode none
attr title "ping out-of-order arrivals, last"
scalar BusLAN.host[0].pingApp[16] numLost:last nan
attr interpolationmode none
attr title "pings lost, last"
scalar BusLAN.host[0].pingApp[16] rtt:mean 0.00017813447162121
attr interpolationmode none
attr title "ping round-trip time, mean"
attr unit s
scalar BusLAN.host[0].pingApp[17] "Pings sent" 401
scalar BusLAN.host[0].pingApp[17] "ping loss rate (%)" 0
scalar BusLAN.host[0].pingApp[17] "ping out-of-order rate (%)" 0
scalar BusLAN.host[0].pingApp[17] pingRxSeq:count 295
attr interpolationmode none
attr title "ping rx seq, count"
scalar BusLAN.host[0].pingApp[17] pingTxSeq:count 295
attr interpolationmode none
attr title "ping tx seq, count"
scalar BusLAN.host[0].pingApp[17] numOutOfOrderArrivals:last nan
attr interpolationmode none
attr title "ping out-of-order arrivals, last"
scalar BusLAN.host[0].pingApp[17] numLost:last nan
attr interpolationmode none
attr title "pings lost, last"
scalar BusLAN.host[0].pingApp[17] rtt:mean 0.00019858485336296
attr interpolationmode none
attr title "ping round-trip time, mean"
attr unit s
scalar BusLAN.host[0].pingApp[18] "Pings sent" 383
scalar BusLAN.host[0].pingApp[18] "ping loss rate (%)" 0.26109660574413
scalar BusLAN.host[0].pingApp[18] "ping out-of-order rate (%)" 0
scalar BusLAN.host[0].pingApp[18] pingRxSeq:count 292
attr interpolationmode none
attr title "ping rx seq, count"
scalar BusLAN.host[0].pingApp[18] pingTxSeq:count 293
attr interpolationmode none
attr title "ping tx seq, count"
scalar BusLAN.host[0].pingApp[18] numOutOfOrderArrivals:last nan
attr interpolationmode none
attr title "ping out-of-order arrivals, last"
scalar BusLAN.host[0].pingApp[18] numLost:last 1
attr interpolationmode none
attr title "pings lost, last"
scalar BusLAN.host[0].pingApp[18] rtt:mean 0.00039665296758647
attr interpolationmode none
attr title "ping round-trip time, mean"
attr unit s
scalar BusLAN.host[0].pingApp[19] "Pings sent" 391
scalar BusLAN.host[0].pingApp[19] "ping loss rate (%)" 0
scalar BusLAN.host[0].pingApp[19] "ping out-of-order rate (%)" 0
scalar BusLAN.host[0].pingApp[19] pingRxSeq:count 303
attr interpolationmode none
attr title "ping rx seq, count"
scalar BusLAN.host[0].pingApp[19] pingTxSeq:count 303
attr interpolationmode none
attr title "ping tx seq, count"
scalar BusLAN.host[0].pingApp[19] numOutOfOrderArrivals:last nan
attr interpolationmode none
attr title "ping out-of-order arrivals, last"
scalar BusLAN.host[0].pingApp[19] numLost:last nan
attr interpolationmode none
attr title "pings lost, last"
scalar BusLAN.host[0].pingApp[19] rtt:mean 0.00027355323650719
attr interpolationmode none
attr title "ping round-trip time, mean"
attr unit s
scalar BusLAN.host[0].pingApp[20] "Pings sent" 384
scalar BusLAN.host[0].pingApp[20] "ping loss rate (%)" 0.26041666666667
scalar BusLAN.host[0].pingApp[20] "ping out-of-order rate (%)" 0
scalar BusLAN.host[0].pingApp[20] pingRxSeq:count 291
attr interpolationmode none
attr title "ping rx seq, count"
scalar BusLAN.host[0].pingApp[20] pingTxSeq:count 292
attr interpolationmode none
attr title "ping tx seq, count"
scalar BusLAN.host[0].pingApp[20] numOutOfOrderArrivals:last nan
attr interpolationmode none
attr title "ping out-of-order arrivals, last"
scalar BusLAN.host[0].pingApp[20] numLost:last 1
attr interpolationmode none
attr title "pings lost, last"
scalar BusLAN.host[0].pingApp[20] rtt:mean 0.00027593091408429
attr interpolationmode none
attr title "ping round-trip time, mean"
attr unit s
scalar BusLAN.host[0].pingApp[21] "Pings sent" 379
scalar BusLAN.host[0].pingApp[21] "ping loss rate (%)" 0
scalar BusLAN.host[0].pingApp[21] "ping out-of-order rate (%)" 0
scalar BusLAN.host[0].pingApp[21] pingRxSeq:count 295
attr interpolationmode none
attr title "ping rx seq, count"
scalar BusLAN.host[0].pingApp[21] pingTxSeq:count 295
attr interpolationmode none
attr title "ping tx seq, count"
scalar BusLAN.host[0].pingApp[21] numOutOfOrderArrivals:last nan
attr interpolationmode none
attr title "ping out-of-order arrivals, last"
scalar BusLAN.host[0].pingApp[21] numLost:last nan
attr interpolationmode none
attr title "pings lost, last"
scalar BusLAN.host[0].pingApp[21] rtt:mean 0.00020844238538023
attr interpolationmode none
attr title "ping round-trip time, mean"
attr unit s
scalar BusLAN.host[0].pingApp[22] "Pings sent" 380
scalar BusLAN.host[0].pingApp[22] "ping loss rate (%)" 0
scalar BusLAN.host[0].pingApp[22] "ping out-of-order rate (%)" 0
scalar BusLAN.host[0].pingApp[22] pingRxSeq:count 282
attr interpolationmode none
attr title "ping rx seq, count"
scalar BusLAN.host[0].pingApp[22] pingTxSeq:count 282
attr interpolationmode none
attr title "ping tx seq, count"
scalar BusLAN.host[0].pingApp[22] numOutOfOrderArrivals:last nan
attr interpolationmode none
attr title "ping out-of-order arrivals, last"
scalar BusLAN.host[0].pingApp[22] numLost:last nan
attr interpolationmode none
attr title "pings lost, last"
scalar BusLAN.host[0].pingApp[22] rtt:mean 0.00028730590919048
attr interpolationmode none
attr title "ping round-trip time, mean"
attr unit s
scalar BusLAN.host[0].pingApp[23] "Pings sent" 382
scalar BusLAN.host[0].pingApp[23] "ping loss rate (%)" 0
scalar BusLAN.host[0].pingApp[23] "ping out-of-order rate (%)" 0
scalar BusLAN.host[0].pingApp[23] pingRxSeq:count 290
attr interpolationmode none
attr title "ping rx seq, count"
scalar BusLAN.host[0].pingApp[23] pingTxSeq:count 290
attr interpolationmode none
attr title "ping tx seq, count"
scalar BusLAN.host[0].pingApp[23] numOutOfOrderArrivals:last nan
attr interpolationmode none
attr title "ping out-of-order arrivals, last"
scalar BusLAN.host[0].pingApp[23] numLost:last nan
attr interpolationmode none
attr title "pings lost, last"
scalar BusLAN.host[0].pingApp[23] rtt:mean 0.00012395219879693
attr interpolationmode none
attr title "ping round-trip time, mean"
attr unit s
scalar BusLAN.host[0].pingApp[24] "Pings sent" 378
scalar BusLAN.host[0].pingApp[24] "ping loss rate (%)" 0
scalar BusLAN.host[0].pingApp[24] "ping out-of-order rate (%)" 0
scalar BusLAN.host[0].pingApp[24] pingRxSeq:count 285
attr interpolationmode none
attr title "ping rx seq, count"
scalar BusLAN.host[0].pingApp[24] pingTxSeq:count 285
attr interpolationmode none
attr title "ping tx seq, count"
scalar BusLAN.host[0].pingApp[24] numOutOfOrderArrivals:last nan
attr interpolationmode none
attr title "ping out-of-order arrivals, last"
scalar BusLAN.host[0].pingApp[24] numLost:last nan
attr interpolationmode none
attr title "pings lost, last"
scalar BusLAN.host[0].pingApp[24] rtt:mean 0.00031378326541313
attr interpolationmode none
attr title "ping round-trip time, mean"
attr unit s
scalar BusLAN.host[0].pingApp[25] "Pings sent" 395
scalar BusLAN.host[0].pingApp[25] "ping loss rate (%)" 0
scalar BusLAN.host[0].pingApp[25] "ping out-of-order rate (%)" 0
scalar BusLAN.host[0].pingApp[25] pingRxSeq:count 305
attr interpolationmode none
attr title "ping rx seq, count"
scalar BusLAN.host[0].pingApp[25] pingTxSeq:count 305
attr interpolationmode none
attr title "ping tx seq, count"
scalar BusLAN.host[0].pingApp[25] numOutOfOrderArrivals:last nan
attr interpolationmode none
attr title "ping out-of-order arrivals, last"
scalar BusLAN.host[0].pingApp[25] numLost:last nan
attr interpolationmode none
attr title "pings lost, last"
scalar BusLAN.host[0].pingApp[25] rtt:mean 0.00027887047376119
attr interpolationmode none
attr title "ping round-trip time, mean"
attr unit s
scalar BusLAN.host[0].pingApp[26] "Pings sent" 393
scalar BusLAN.host[0].pingApp[26] "ping loss rate (%)" 0
scalar BusLAN.host[0].pingApp[26] "ping out-of-order rate (%)" 0
scalar BusLAN.host[0].pingApp[26] pingRxSeq:count 299
attr interpolationmode none
attr title "ping rx seq, count"
scalar BusLAN.host[0].pingApp[26] pingTxSeq:count 299
attr interpolationmode none
attr title "ping tx seq, count"
scalar BusLAN.host[0].pingApp[26] numOutOfOrderArrivals:last nan
attr interpolationmode none
attr title "ping out-of-order arrivals, last"
scalar BusLAN.host[0].pingApp[26] numLost:last nan
attr interpolationmode none
attr title "pings lost, last"
scalar BusLAN.host[0].pingApp[26] rtt:mean 0.00010439404323723
attr interpolationmode none
attr title "ping round-trip time, mean"
attr unit s
scalar BusLAN.host[0].pingApp[27] "Pings sent" 381
scalar BusLAN.host[0].pingApp[27] "ping loss rate (%)" 0
scalar BusLAN.host[0].pingApp[27] "ping out-of-order rate (%)" 0
scalar BusLAN.host[0].pingApp[27] pingRxSeq:count 286
attr interpolationmode none
attr title "ping rx seq, count"
scalar BusLAN.host[0].pingApp[27] pingTxSeq:count 286
attr interpolationmode none
attr title "ping tx seq, count"
scalar BusLAN.host[0].pingApp[27] numOutOfOrderArrivals:last nan
attr interpolationmode none
attr title "ping out-of-order arrivals, last"
scalar BusLAN.host[0].pingApp[27] numLost:last nan
attr interpolationmode none
attr title "pings lost, last"
scalar BusLAN.host[0].pingApp[27] rtt:mean 0.00024642380742629
attr interpolationmode none
attr title "ping round-trip time, mean"
attr unit s
scalar BusLAN.host[0].pingApp[28] "Pings sent" 383
scalar BusLAN.host[0].pingApp[28] "ping loss rate (%)" 0
scalar BusLAN.host[0].pingApp[28] "ping out-of-order rate (%)" 0
scalar BusLAN.host[0].pingApp[28] pingRxSeq:count 290
attr interpolationmode none
attr title "ping rx seq, count"
scalar BusLAN.host[0].pingApp[28] pingTxSeq:count 290
attr interpolationmode none
attr title "ping tx seq, count"
scalar BusLAN.host[0].pingApp[28] numOutOfOrderArrivals:last nan
attr interpolationmode none
attr title "ping out-of-order arrivals, last"
scalar BusLAN.host[0].pingApp[28] numLost:last nan
attr interpolationmode none
attr title "pings lost, last"
scalar BusLAN.host[0].pingApp[28] rtt:mean 0.00027951890041762
attr interpolationmode none
attr title "ping round-trip time, mean"
attr unit s
scalar BusLAN.host[0].pingApp[29] "Pings sent" 376
scalar BusLAN.host[0].pingApp[29] "ping loss rate (%)" 0
scalar BusLAN.host[0].pingApp[29] "ping out-of-order rate (%)" 0
scalar BusLAN.host[0].pingApp[29] pingRxSeq:count 277
attr interpolationmode none
attr title "ping rx seq, count"
scalar BusLAN.host[0].pingApp[29] pingTxSeq:count 277
attr interpolationmode none
attr title "ping tx seq, count"
scalar BusLAN.host[0].pingApp[29] numOutOfOrderArrivals:last nan
attr interpolationmode none
attr title "ping out-of-order arrivals, last"
scalar BusLAN.host[0].pingApp[29] numLost:last nan
attr interpolationmode none
attr title "pings lost, last"
scalar BusLAN.host[0].pingApp[29] rtt:mean 0.00020172949484064
attr interpolationmode none
attr title "ping round-trip time, mean"
attr unit s
scalar BusLAN.host[0].pingApp[30] "Pings sent" 387
scalar BusLAN.host[0].pingApp[30] "ping loss rate (%)" 0
scalar BusLAN.host[0].pingApp[30] "ping out-of-order rate (%)" 0
scalar BusLAN.host[0].pingApp[30] pingRxSeq:count 288
attr interpolationmode none
attr title "ping rx seq, count"
scalar BusLAN.host[0].pingApp[30] pingTxSeq:count 288
attr interpolationmode none
attr title "ping tx seq, count"
scalar BusLAN.host[0].pingApp[30] numOutOfOrderArrivals:last nan
attr interpolationmode none
attr title "ping out-of-order arrivals, last"
scalar BusLAN.host[0].pingApp[30] numLost:last nan
attr interpolationmode none
attr title "pings lost, last"
scalar BusLAN.host[0].pingApp[30] rtt:mean 0.00010299006811765
attr interpolationmode none
attr title "ping round-trip time, mean"
attr unit s
scalar BusLAN.host[0].pingApp[31] "Pings sent" 377
scalar BusLAN.host[0].pingApp[31] "ping loss rate (%)" 0
scalar BusLAN.host[0].pingApp[31] "ping out-of-order rate (%)" 0
scalar BusLAN.host[0].pingApp[31] pingRxSeq:count 282
attr interpolationmode none
attr title "ping rx seq, count"
scalar BusLAN.host[0].pingApp[31] pingTxSeq:count 282
attr interpolationmode none
attr title "ping tx seq, count"
scalar BusLAN.host[0].pingApp[31] numOutOfOrderArrivals:last nan
attr interpolationmode none
attr title "ping out-of-order arrivals, last"
scalar BusLAN.host[0].pingApp[31] numLost:last nan
attr interpolationmode none
attr title "pings lost, last"
scalar BusLAN.host[0].pingApp[31] rtt:mean 0.00018134957255
attr interpolationmode none
attr title "ping round-trip time, mean"
attr unit s
scalar BusLAN.host[0].pingApp[32] "Pings sent" 378
scalar BusLAN.host[0].pingApp[32] "ping loss rate (%)" 0
scalar BusLAN.host[0].pingApp[32] "ping out-of-order rate (%)" 0
scalar BusLAN.host[0].pingApp[32] pingRxSeq:count 290
attr interpolationmode none
attr title "ping rx seq, count"
scalar BusLAN.host[0].pingApp[32] pingTxSeq:count 290
attr interpolationmode none
attr title "ping tx seq, count"
scalar BusLAN.host[0].pingApp[32] numOutOfOrderArrivals:last nan
attr interpolationmode none
attr title "ping out-of-order arrivals, last"
scalar BusLAN.host[0].pingApp[32] numLost:last nan
attr interpolationmode none
attr title "pings lost, last"
scalar BusLAN.host[0].pingApp[32] rtt:mean 0.00026746850255849
attr interpolationmode none
attr title "ping round-trip time, mean"
attr unit s
scalar BusLAN.host[0].pingApp[33] "Pings sent" 381
scalar BusLAN.host[0].pingApp[33] "ping loss rate (%)" 0
scalar BusLAN.host[0].pingApp[33] "ping out-of-order rate (%)" 0
scalar BusLAN.host[0].pingApp[33] pingRxSeq:count 282
attr interpolationmode none
attr title "ping rx seq, count"
scalar BusLAN.host[0].pingApp[33] pingTxSeq:count 282
attr interpolationmode none
attr title "ping tx seq, count"
scalar BusLAN.host[0].pingApp[33] numOutOfOrderArrivals:last nan
attr interpolationmode none
attr title "ping out-of-order arrivals, last"
scalar BusLAN.host[0].pingApp[33] numLost:last nan
attr interpolationmode none
attr title "pings lost, last"
scalar BusLAN.host[0].pingApp[33] rtt:mean 0.00019675121463602
attr interpolationmode none
attr title "ping round-trip time, mean"
attr unit s
scalar BusLAN.host[0].pingApp[34] "Pings sent" 391
scalar BusLAN.host[0].pingApp[34] "ping loss rate (%)" 0
scalar BusLAN.host[0].pingApp[34] "ping out-of-order rate (%)" 0
scalar BusLAN.host[0].pingApp[34] pingRxSeq:count 294
attr interpolationmode none
attr title "ping rx seq, count"
scalar BusLAN.host[0].pingApp[34] pingTxSeq:count 294
attr interpolationmode none
attr title "ping tx seq, count"
scalar BusLAN.host[0].pingApp[34] numOutOfOrderArrivals:last nan
attr interpolationmode none
attr title "ping out-of-order arrivals, last"
scalar BusLAN.host[0].pingApp[34] numLost:last nan
attr interpolationmode none
attr title "pings lost, last"
scalar BusLAN.host[0].pingApp[34] rtt:mean 0.00033663837952239
attr interpolationmode none
attr title "ping round-trip time, mean"
attr unit s
scalar BusLAN.host[0].pingApp[35] "Pings sent" 389
scalar BusLAN.host[0].pingApp[35] "ping loss rate (%)" 0
scalar BusLAN.host[0].pingApp[35] "ping out-of-order rate (%)" 0
scalar BusLAN.host[0].pingApp[35] pingRxSeq:count 285
attr interpolationmode none
attr title "ping rx seq, count"
scalar BusLAN.host[0].pingApp[35] pingTxSeq:count 285
attr interpolationmode none
attr title "ping tx seq, count"
scalar BusLAN.host[0].pingApp[35] numOutOfOrderArrivals:last nan
attr interpolationmode none
attr title "ping out-of-order arrivals, last"
scalar BusLAN.host[0].pingApp[35] numLost:last nan
attr interpolationmode none
attr title "pings lost, last"
scalar BusLAN.host[0].pingApp[35] rtt:mean 0.00018401474467871
attr interpolationmode none
attr title "ping round-trip time, mean"
attr unit s
scalar BusLAN.host[0].pingApp[36] "Pings sent" 366
scalar BusLAN.host[0].pingApp[36] "ping loss rate (%)" 0
scalar BusLAN.host[0].pingApp[36] "ping out-of-order rate (%)" 0
scalar BusLAN.host[0].pingApp[36] pingRxSeq:count 283
attr interpolationmode none
attr title "ping rx seq, count"
scalar BusLAN.host[0].pingApp[36] pingTxSeq:count 283
attr interpolationmode none
attr title "ping tx seq, count"
scalar BusLAN.host[0].pingApp[36] numOutOfOrderArrivals:last nan
attr interpolationmode none
attr title "ping out-of-order arrivals, last"
scalar BusLAN.host[0].pingApp[36] numLost:last nan
attr interpolationmode none
attr title "pings lost, last"
scalar BusLAN.host[0].pingApp[36] rtt:mean 0.00038868550100385
attr interpolationmode none
attr title "ping round-trip time, mean"
attr unit s
scalar BusLAN.host[0].pingApp[37] "Pings sent" 399
scalar BusLAN.host[0].pingApp[37] "ping loss rate (%)" 0
scalar BusLAN.host[0].pingApp[37] "ping out-of-order rate (%)" 0
scalar BusLAN.host[0].pingApp[37] pingRxSeq:count 301
attr interpolationmode none
attr title "ping rx seq, count"
scalar BusLAN.host[0].pingApp[37] pingTxSeq:count 301
attr interpolationmode none
attr title "ping tx seq, count"
scalar BusLAN.host[0].pingApp[37] numOutOfOrderArrivals:last nan
attr interpolationmode none
attr title "ping out-of-order arrivals, last"
scalar BusLAN.host[0].pingApp[37] numLost:last nan
attr interpolationmode none
attr title "pings lost, last"
scalar BusLAN.host[0].pingApp[37] rtt:mean 0.00024085231868302
attr interpolationmode none
attr title "ping round-trip time, mean"
attr unit s
scalar BusLAN.host[0].pingApp[38] "Pings sent" 398
scalar BusLAN.host[0].pingApp[38] "ping loss rate (%)" 0
scalar BusLAN.host[0].pingApp[38] "ping out-of-order rate (%)" 0
scalar BusLAN.host[0].pingApp[38] pingRxSeq:count 300
attr interpolationmode none
attr title "ping rx seq, count"
scalar BusLAN.host[0].pingApp[38] pingTxSeq:count 300
attr interpolationmode none
attr title "ping tx seq, count"
scalar BusLAN.host[0].pingApp[38] numOutOfOrderArrivals:last nan
attr interpolationmode none
attr title "ping out-of-order arrivals, last"
scalar BusLAN.host[0].pingApp[38] numLost:last nan
attr interpolationmode none
attr title "pings lost, last"
scalar BusLAN.host[0].pingApp[38] rtt:mean 0.00029157422426978
attr interpolationmode none
attr title "ping round-trip time, mean"
attr unit s
scalar BusLAN.host[0].pingApp[39] "Pings sent" 381
scalar BusLAN.host[0].pingApp[39] "ping loss rate (%)" 0
scalar BusLAN.host[0].pingApp[39] "ping out-of-order rate (%)" 0
scalar BusLAN.host[0].pingApp[39] pingRxSeq:count 289
attr interpolationmode none
attr title "ping rx seq, count"
scalar BusLAN.host[0].pingApp[39] pingTxSeq:count 289
attr interpolationmode none
attr title "ping tx seq, count"
scalar BusLAN.host[0].pingApp[39] numOutOfOrderArrivals:last nan
attr interpolationmode none
attr title "ping out-of-order arrivals, last"
scalar BusLAN.host[0].pingApp[39] numLost:last nan
attr interpolationmode none
attr title "pings lost, last"
scalar BusLAN.host[0].pingApp[39] rtt:mean 0.00033406731139544
attr interpolationmode none
attr title "ping round-trip time, mean"
attr unit s
scalar BusLAN.host[0].pingApp[40] "Pings sent" 382
scalar BusLAN.host[0].pingApp[40] "ping loss rate (%)" 0
scalar BusLAN.host[0].pingApp[40] "ping out-of-order rate (%)" 0
scalar BusLAN.host[0].pingApp[40] pingRxSeq:count 288
attr interpolationmode none
attr title "ping rx seq, count"
scalar BusLAN.host[0].pingApp[40] pingTxSeq:count 288
attr interpolationmode none
attr title "ping tx seq, count"
scalar BusLAN.host[0].pingApp[40] numOutOfOrderArrivals:last nan
attr interpolationmode none
attr title "ping out-of-order arrivals, last"
scalar BusLAN.host[0].pingApp[40] numLost:last nan
attr interpolationmode none
attr title "pings lost, last"
scalar BusLAN.host[0].pingApp[40] rtt:mean 0.000120428166
attr interpolationmode none
attr title "ping round-trip time, mean"
attr unit s
scalar BusLAN.host[0].pingApp[41] "Pings sent" 386
scalar BusLAN.host[0].pingApp[41] "ping loss rate (%)" 0
scalar BusLAN.host[0].pingApp[41] "ping out-of-order rate (%)" 0
scalar BusLAN.host[0].pingApp[41] pingRxSeq:count 296
attr interpolationmode none
attr title "ping rx seq, count"
scalar BusLAN.host[0].pingApp[41] pingTxSeq:count 296
attr interpolationmode none
attr title "ping tx seq, count"
scalar BusLAN.host[0].pingApp[41] numOutOfOrderArrivals:last nan
attr interpolationmode none
attr title "ping out-of-order arrivals, last"
scalar BusLAN.host[0].pingApp[41] numLost:last nan
attr interpolationmode none
attr title "pings lost, last"
scalar BusLAN.host[0].pingApp[41] rtt:mean 0.00032553046771324
attr interpolationmode none
attr title "ping round-trip time, mean"
attr unit s
scalar BusLAN.host[0].pingApp[42] "Pings sent" 390
scalar BusLAN.host[0].pingApp[42] "ping loss rate (%)" 0
scalar BusLAN.host[0].pingApp[42] "ping out-of-order rate (%)" 0
scalar BusLAN.host[0].pingApp[42] pingRxSeq:count 290
attr interpolationmode none
attr title "ping rx seq, count"
scalar BusLAN.host[0].pingApp[42] pingTxSeq:count 290
attr interpolationmode none
attr title "ping tx seq, count"
scalar BusLAN.host[0].pingApp[42] numOutOfOrderArrivals:last nan
attr interpolationmode none
attr title "ping out-of-order arrivals, last"
scalar BusLAN.host[0].pingApp[42] numLost:last nan
attr interpolationmode none
attr title "pings lost, last"
scalar BusLAN.host[0].pingApp[42] rtt:mean 0.00019188743651711
attr interpolationmode none
attr title "ping round-trip time, mean"
attr unit s
scalar BusLAN.host[0].pingApp[43] "Pings sent" 382
scalar BusLAN.host[0].pingApp[43] "ping loss rate (%)" 0
scalar BusLAN.host[0].pingApp[43] "ping out-of-order rate (%)" 0
scalar BusLAN.host[0].pingApp[43] pingRxSeq:count 289
attr interpolationmode none
attr title "ping rx seq, count"
scalar BusLAN.host[0].pingApp[43] pingTxSeq:count 289
attr interpolationmode none
attr title "ping tx seq, count"
scalar BusLAN.host[0].pingApp[43] numOutOfOrderArrivals:last nan
attr interpolationmode none
attr title "ping out-of-order arrivals, last"
scalar BusLAN.host[0].pingApp[43] numLost:last nan
attr interpolationmode none
attr title "pings lost, last"
scalar BusLAN.host[0].pingApp[43] rtt:mean 0.00012601839695313
attr interpolationmode none
attr title "ping round-trip time, mean"
attr unit s
scalar BusLAN.host[0].pingApp[44] "Pings sent" 389
scalar BusLAN.host[0].pingApp[44] "ping loss rate (%)" 0
scalar BusLAN.host[0].pingApp[44] "ping out-of-order rate (%)" 0
scalar BusLAN.host[0].pingApp[44] pingRxSeq:count 296
attr interpolationmode none
attr title "ping rx seq, count"
scalar BusLAN.host[0].pingApp[44] pingTxSeq:count 296
attr interpolationmode none
attr title "ping tx seq, count"
scalar BusLAN.host[0].pingApp[44] numOutOfOrderArrivals:last nan
attr interpolationmode none
attr title "ping out-of-order arrivals, last"
scalar BusLAN.host[0].pingApp[44] numLost:last nan
attr interpolationmode none
attr title "pings lost, last"
scalar BusLAN.host[0].pingApp[44] rtt:mean 0.00031141911954982
attr interpolationmode none
attr title "ping round-trip time, mean"
attr unit s
scalar BusLAN.host[0].pingApp[45] "Pings sent" 385
scalar BusLAN.host[0].pingApp[45] "ping loss rate (%)" 0
scalar BusLAN.host[0].pingApp[45] "ping out-of-order rate (%)" 0
scalar BusLAN.host[0].pingApp[45] pingRxSeq:count 286
attr interpolationmode none
attr title "ping rx seq, count"
scalar BusLAN.host[0].pingApp[45] pingTxSeq:count 286
attr interpolationmode none
attr title "ping tx seq, count"
scalar BusLAN.host[0].pingApp[45] numOutOfOrderArrivals:last nan
attr interpolationmode none
attr title "ping out-of-order arrivals, last"
scalar BusLAN.host[0].pingApp[45] numLost:last nan
attr interpolationmode none
attr title "pings lost, last"
scalar BusLAN.host[0].pingApp[45] rtt:mean 0.00037583171926667
attr interpolationmode none
attr title "ping round-trip time, mean"
attr unit s
scalar BusLAN.host[0].pingApp[46] "Pings sent" 399
scalar BusLAN.host[0].pingApp[46] "ping loss rate (%)" 0.25062656641604
scalar BusLAN.host[0].pingApp[46] "ping out-of-order rate (%)" 0
scalar BusLAN.host[0].pingApp[46] pingRxSeq:count 300
attr interpolationmode none
attr title "ping rx seq, count"
scalar BusLAN.host[0].pingApp[46] pingTxSeq:count 301
attr interpolationmode none
attr title "ping tx seq, count"
scalar BusLAN.host[0].pingApp[46] numOutOfOrderArrivals:last nan
attr interpolationmode none
attr title "ping out-of-order arrivals, last"
scalar BusLAN.host[0].pingApp[46] numLost:last 1
attr interpolationmode none
attr title "pings lost, last"
scalar BusLAN.host[0].pingApp[46] rtt:mean 0.00026196535228676
attr interpolationmode none
attr title "ping round-trip time, mean"
attr unit s
scalar BusLAN.host[0].pingApp[47] "Pings sent" 403
scalar BusLAN.host[0].pingApp[47] "ping loss rate (%)" 0
scalar BusLAN.host[0].pingApp[47] "ping out-of-order rate (%)" 0
scalar BusLAN.host[0].pingApp[47] pingRxSeq:count 307
attr interpolationmode none
attr title "ping rx seq, count"
scalar BusLAN.host[0].pingApp[47] pingTxSeq:count 307
attr interpolationmode none
attr title "ping tx seq, count"
scalar BusLAN.host[0].pingApp[47] numOutOfOrderArrivals:last nan
attr interpolationmode none
attr title "ping out-of-order arrivals, last"
scalar BusLAN.host[0].pingApp[47] numLost:last nan
attr interpolationmode none
attr title "pings lost, last"
scalar BusLAN.host[0].pingApp[47] rtt:mean 0.00014388172182051
attr interpolationmode none
attr title "ping round-trip time, mean"
attr unit s
scalar BusLAN.host[0].pingApp[48] "Pings sent" 379
scalar BusLAN.host[0].pingApp[48] "ping loss rate (%)" 0
scalar BusLAN.host[0].pingApp[48] "ping out-of-order rate (%)" 0
scalar BusLAN.host[0].pingApp[48] pingRxSeq:count 289
attr interpolationmode none
attr title "ping rx seq, count"
scalar BusLAN.host[0].pingApp[48] pingTxSeq:count 289
attr interpolationmode none
attr title "ping tx seq, count"
scalar BusLAN.host[0].pingApp[48] numOutOfOrderArrivals:last nan
attr interpolationmode none
attr title "ping out-of-order arrivals, last"
scalar BusLAN.host[0].pingApp[48] numLost:last nan
attr interpolationmode none
attr title "pings lost, last"
scalar BusLAN.host[0].pingApp[48] rtt:mean 0.00019442836609231
attr interpolationmode none
attr title "ping round-trip time, mean"
attr unit s
scalar BusLAN.host[0].pingApp[49] "Pings sent" 381
scalar BusLAN.host[0].pingApp[49] "ping loss rate (%)" 0
scalar BusLAN.host[0].pingApp[49] "ping out-of-order rate (%)" 0
scalar BusLAN.host[0].pingApp[49] pingRxSeq:count 286
attr interpolationmode none
attr title "ping rx seq, count"
scalar BusLAN.host[0].pingApp[49] pingTxSeq:count 286
attr interpolationmode none
attr title "ping tx seq, count"
scalar BusLAN.host[0].pingApp[49] numOutOfOrderArrivals:last nan
attr interpolationmode none
attr title "ping out-of-order arrivals, last"
scalar BusLAN.host[0].pingApp[49] numLost:last nan
attr interpolationmode none
attr title "pings lost, last"
scalar BusLAN.host[0].pingApp[49] rtt:mean 0.00011847266147529
attr interpolationmode none
attr title "ping round-trip time, mean"
attr unit s
scalar BusLAN.host[0].pingApp[50] "Pings sent" 380
scalar BusLAN.host[0].pingApp[50] "ping loss rate (%)" 0
scalar BusLAN.host[0].pingApp[50] "ping out-of-order rate (%)" 0
scalar BusLAN.host[0].pingApp[50] pingRxSeq:count 282
attr interpolationmode none
attr title "ping rx seq, count"
scalar BusLAN.host[0].pingApp[50] pingTxSeq:count 282
attr interpolationmode none
attr title "ping tx seq, count"
scalar BusLAN.host[0].pingApp[50] numOutOfOrderArrivals:last nan
attr interpolationmode none
attr title "ping out-of-order arrivals, last"
scalar BusLAN.host[0].pingApp[50] numLost:last nan
attr interpolationmode none
attr title "pings lost, last"
scalar BusLAN.host[0].pingApp[50] rtt:mean 9.5180695084291e-005
attr interpolationmode none
attr title "ping round-trip time, mean"
attr unit s
scalar BusLAN.host[0].pingApp[51] "Pings sent" 374
scalar BusLAN.host[0].pingApp[51] "ping loss rate (%)" 0
scalar BusLAN.host[0].pingApp[51] "ping out-of-order rate (%)" 0
scalar BusLAN.host[0].pingApp[51] pingRxSeq:count 275
attr interpolationmode none
attr title "ping rx seq, count"
scalar BusLAN.host[0].pingApp[51] pingTxSeq:count 275
attr interpolationmode none
attr title "ping tx seq, count"
scalar BusLAN.host[0].pingApp[51] numOutOfOrderArrivals:last nan
attr interpolationmode none
attr title "ping out-of-order arrivals, last"
scalar BusLAN.host[0].pingApp[51] numLost:last nan
attr interpolationmode none
attr title "pings lost, last"
scalar BusLAN.host[0].pingApp[51] rtt:mean 0.000374274356084
attr interpolationmode none
attr title "ping round-trip time, mean"
attr unit s
scalar BusLAN.host[0].pingApp[52] "Pings sent" 379
scalar BusLAN.host[0].pingApp[52] "ping loss rate (%)" 0
scalar BusLAN.host[0].pingApp[52] "ping out-of-order rate (%)" 0
scalar BusLAN.host[0].pingApp[52] pingRxSeq:count 287
attr interpolationmode none
attr title "ping rx seq, count"
scalar BusLAN.host[0].pingApp[52] pingTxSeq:count 287
attr interpolationmode none
attr title "ping tx seq, count"
scalar BusLAN.host[0].pingApp[52] numOutOfOrderArrivals:last nan
attr interpolationmode none
attr title "ping out-of-order arrivals, last"
scalar BusLAN.host[0].pingApp[52] numLost:last nan
attr interpolationmode none
attr title "pings lost, last"
scalar BusLAN.host[0].pingApp[52] rtt:mean 0.00027924972605906
attr interpolationmode none
attr title "ping round-trip time, mean"
attr unit s
scalar BusLAN.host[0].pingApp[53] "Pings sent" 391
scalar BusLAN.host[0].pingApp[53] "ping loss rate (%)" 0
scalar BusLAN.host[0].pingApp[53] "ping out-of-order rate (%)" 0
scalar BusLAN.host[0].pingApp[53] pingRxSeq:count 288
attr interpolationmode none
attr title "ping rx seq, count"
scalar BusLAN.host[0].pingApp[53] pingTxSeq:count 288
attr interpolationmode none
attr title "ping tx seq, count"
scalar BusLAN.host[0].pingApp[53] numOutOfOrderArrivals:last nan
attr interpolationmode none
attr title "ping out-of-order arrivals, last"
scalar BusLAN.host[0].pingApp[53] numLost:last nan
attr interpolationmode none
attr title "pings lost, last"
scalar BusLAN.host[0].pingApp[53] rtt:mean 0.00029233367262357
attr interpolationmode none
attr title "ping round-trip time, mean"
attr unit s
scalar BusLAN.host[0].pingApp[54] "Pings sent" 387
scalar BusLAN.host[0].pingApp[54] "ping loss rate (%)" 0
scalar BusLAN.host[0].pingApp[54] "ping out-of-order rate (%)" 0
scalar BusLAN.host[0].pingApp[54] pingRxSeq:count 296
attr interpolationmode none
attr title "ping rx seq, count"
scalar BusLAN.host[0].pingApp[54] pingTxSeq:count 296
attr interpolationmode none
attr title "ping tx seq, count"
scalar BusLAN.host[0].pingApp[54] numOutOfOrderArrivals:last nan
attr interpolationmode none
attr title "ping out-of-order arrivals, last"
scalar BusLAN.host[0].pingApp[54] numLost:last nan
attr interpolationmode none
attr title "pings lost, last"
scalar BusLAN.host[0].pingApp[54] rtt:mean 0.00031874637904151
attr interpolationmode none
attr title "ping round-trip time, mean"
attr unit s
scalar BusLAN.host[0].pingApp[55] "Pings sent" 383
scalar BusLAN.host[0].pingApp[55] "ping loss rate (%)" 0
scalar BusLAN.host[0].pingApp[55] "ping out-of-order rate (%)" 0
scalar BusLAN.host[0].pingApp[55] pingRxSeq:count 292
attr interpolationmode none
attr title "ping rx seq, count"
scalar BusLAN.host[0].pingApp[55] pingTxSeq:count 292
attr interpolationmode none
attr title "ping tx seq, count"
scalar BusLAN.host[0].pingApp[55] numOutOfOrderArrivals:last nan
attr interpolationmode none
attr title "ping out-of-order arrivals, last"
scalar BusLAN.host[0].pingApp[55] numLost:last nan
attr interpolationmode none
attr title "pings lost, last"
scalar BusLAN.host[0].pingApp[55] rtt:mean 0.00034156915566296
attr interpolationmode none
attr title "ping round-trip time, mean"
attr unit s
scalar BusLAN.host[0].pingApp[56] "Pings sent" 399
scalar BusLAN.host[0].pingApp[56] "ping loss rate (%)" 0
scalar BusLAN.host[0].pingApp[56] "ping out-of-order rate (%)" 0
scalar BusLAN.host[0].pingApp[56] pingRxSeq:count 300
attr interpolationmode none
attr title "ping rx seq, count"
scalar BusLAN.host[0].pingApp[56] pingTxSeq:count 300
attr interpolationmode none
attr title "ping tx seq, count"
scalar BusLAN.host[0].pingApp[56] numOutOfOrderArrivals:last nan
attr interpolationmode none
attr title "ping out-of-order arrivals, last"
scalar BusLAN.host[0].pingApp[56] numLost:last nan
attr interpolationmode none
attr title "pings lost, last"
scalar BusLAN.host[0].pingApp[56] rtt:mean 0.00036249156533333
attr interpolationmode none
attr title "ping round-trip time, mean"
attr unit s
scalar BusLAN.host[0].pingApp[57] "Pings sent" 389
scalar BusLAN.host[0].pingApp[57] "ping loss rate (%)" 0
scalar BusLAN.host[0].pingApp[57] "ping out-of-order rate (%)" 0
scalar BusLAN.host[0].pingApp[57] pingRxSeq:count 298
attr interpolationmode none
attr title "ping rx seq, count"
scalar BusLAN.host[0].pingApp[57] pingTxSeq:count 298
attr interpolationmode none
attr title "ping tx seq, count"
scalar BusLAN.host[0].pingApp[57] numOutOfOrderArrivals:last nan
attr interpolationmode none
attr title "ping out-of-order arrivals, last"
scalar BusLAN.host[0].pingApp[57] numLost:last nan
attr interpolationmode none
attr title "pings lost, last"
scalar BusLAN.host[0].pingApp[57] rtt:mean 0.0003425347593209
attr interpolationmode none
attr title "ping round-trip time, mean"
attr unit s
scalar BusLAN.host[0].pingApp[58] "Pings sent" 379
scalar BusLAN.host[0].pingApp[58] "ping loss rate (%)" 0
scalar BusLAN.host[0].pingApp[58] "ping out-of-order rate (%)" 0
scalar BusLAN.host[0].pingApp[58] pingRxSeq:count 282
attr interpolationmode none
attr title "ping rx seq, count"
scalar BusLAN.host[0].pingApp[58] pingTxSeq:count 282
attr interpolationmode none
attr title "ping tx seq, count"
scalar BusLAN.host[0].pingApp[58] numOutOfOrderArrivals:last nan
attr interpolationmode none
attr title "ping out-of-order arrivals, last"
scalar BusLAN.host[0].pingApp[58] numLost:last nan
attr interpolationmode none
attr title "pings lost, last"
scalar BusLAN.host[0].pingApp[58] rtt:mean 0.00014602039724898
attr interpolationmode none
attr title "ping round-trip time, mean"
attr unit s
scalar BusLAN.host[0].pingApp[59] "Pings sent" 393
scalar BusLAN.host[0].pingApp[59] "ping loss rate (%)" 0
scalar BusLAN.host[0].pingApp[59] "ping out-of-order rate (%)" 0
scalar BusLAN.host[0].pingApp[59] pingRxSeq:count 308
attr interpolationmode none
attr title "ping rx seq, count"
scalar BusLAN.host[0].pingApp[59] pingTxSeq:count 308
attr interpolationmode none
attr title "ping tx seq, count"
scalar BusLAN.host[0].pingApp[59] numOutOfOrderArrivals:last nan
attr interpolationmode none
attr title "ping out-of-order arrivals, last"
scalar BusLAN.host[0].pingApp[59] numLost:last nan
attr interpolationmode none
attr title "pings lost, last"
scalar BusLAN.host[0].pingApp[59] rtt:mean 0.00016024725072761
attr interpolationmode none
attr title "ping round-trip time, mean"
attr unit s
scalar BusLAN.host[0].pingApp[60] "Pings sent" 387
scalar BusLAN.host[0].pingApp[60] "ping loss rate (%)" 0
scalar BusLAN.host[0].pingApp[60] "ping out-of-order rate (%)" 0
scalar BusLAN.host[0].pingApp[60] pingRxSeq:count 292
attr interpolationmode none
attr title "ping rx seq, count"
scalar BusLAN.host[0].pingApp[60] pingTxSeq:count 292
attr interpolationmode none
attr title "ping tx seq, count"
scalar BusLAN.host[0].pingApp[60] numOutOfOrderArrivals:last nan
attr interpolationmode none
attr title "ping out-of-order arrivals, last"
scalar BusLAN.host[0].pingApp[60] numLost:last nan
attr interpolationmode none
attr title "pings lost, last"
scalar BusLAN.host[0].pingApp[60] rtt:mean 0.00030850829164504
attr interpolationmode none
attr title "ping round-trip time, mean"
attr unit s
scalar BusLAN.host[0].pingApp[61] "Pings sent" 385
scalar BusLAN.host[0].pingApp[61] "ping loss rate (%)" 0
scalar BusLAN.host[0].pingApp[61] "ping out-of-order rate (%)" 0
scalar BusLAN.host[0].pingApp[61] pingRxSeq:count 293
attr interpolationmode none
attr title "ping rx seq, count"
scalar BusLAN.host[0].pingApp[61] pingTxSeq:count 293
attr interpolationmode none
attr title "ping tx seq, count"
scalar BusLAN.host[0].pingApp[61] numOutOfOrderArrivals:last nan
attr interpolationmode none
attr title "ping out-of-order arrivals, last"
scalar BusLAN.host[0].pingApp[61] numLost:last nan
attr interpolationmode none
attr title "pings lost, last"
scalar BusLAN.host[0].pingApp[61] rtt:mean 0.00028268863139483
attr interpolationmode none
attr title "ping round-trip time, mean"
attr unit s
scalar BusLAN.host[0].pingApp[62] "Pings sent" 387
scalar BusLAN.host[0].pingApp[62] "ping loss rate (%)" 0.25839793281654
scalar BusLAN.host[0].pingApp[62] "ping out-of-order rate (%)" 0
scalar BusLAN.host[0].pingApp[62] pingRxSeq:count 302
attr interpolationmode none
attr title "ping rx seq, count"
scalar BusLAN.host[0].pingApp[62] pingTxSeq:count 303
attr interpolationmode none
attr title "ping tx seq, count"
scalar BusLAN.host[0].pingApp[62] numOutOfOrderArrivals:last nan
attr interpolationmode none
attr title "ping out-of-order arrivals, last"
scalar BusLAN.host[0].pingApp[62] numLost:last nan
attr interpolationmode none
attr title "pings lost, last"
scalar BusLAN.host[0].pingApp[62] rtt:mean 0.00027408067977239
attr interpolationmode none
attr title "ping round-trip time, mean"
attr unit s
scalar BusLAN.host[0].pingApp[63] "Pings sent" 395
scalar BusLAN.host[0].pingApp[63] "ping loss rate (%)" 0
scalar BusLAN.host[0].pingApp[63] "ping out-of-order rate (%)" 0
scalar BusLAN.host[0].pingApp[63] pingRxSeq:count 295
attr interpolationmode none
attr title "ping rx seq, count"
scalar BusLAN.host[0].pingApp[63] pingTxSeq:count 295
attr interpolationmode none
attr title "ping tx seq, count"
scalar BusLAN.host[0].pingApp[63] numOutOfOrderArrivals:last nan
attr interpolationmode none
attr title "ping out-of-order arrivals, last"
scalar BusLAN.host[0].pingApp[63] numLost:last nan
attr interpolationmode none
attr title "pings lost, last"
scalar BusLAN.host[0].pingApp[63] rtt:mean 0.00027634578960547
attr interpolationmode none
attr title "ping round-trip time, mean"
attr unit s
scalar BusLAN.host[0].pingApp[64] "Pings sent" 383
scalar BusLAN.host[0].pingApp[64] "ping loss rate (%)" 0
scalar BusLAN.host[0].pingApp[64] "ping out-of-order rate (%)" 0
scalar BusLAN.host[0].pingApp[64] pingRxSeq:count 289
attr interpolationmode none
attr title "ping rx seq, count"
scalar BusLAN.host[0].pingApp[64] pingTxSeq:count 289
attr interpolationmode none
attr title "ping tx seq, count"
scalar BusLAN.host[0].pingApp[64] numOutOfOrderArrivals:last nan
attr interpolationmode none
attr title "ping out-of-order arrivals, last"
scalar BusLAN.host[0].pingApp[64] numLost:last nan
attr interpolationmode none
attr title "pings lost, last"
scalar BusLAN.host[0].pingApp[64] rtt:mean 0.00028004663081712
attr interpolationmode none
attr title "ping round-trip time, mean"
attr unit s
scalar BusLAN.host[0].pingApp[65] "Pings sent" 393
scalar BusLAN.host[0].pingApp[65] "ping loss rate (%)" 0.25445292620865
scalar BusLAN.host[0].pingApp[65] "ping out-of-order rate (%)" 0
scalar BusLAN.host[0].pingApp[65] pingRxSeq:count 291
attr interpolationmode none
attr title "ping rx seq, count"
scalar BusLAN.host[0].pingApp[65] pingTxSeq:count 292
attr interpolationmode none
attr title "ping tx seq, count"
scalar BusLAN.host[0].pingApp[65] numOutOfOrderArrivals:last nan
attr interpolationmode none
attr title "ping out-of-order arrivals, last"
scalar BusLAN.host[0].pingApp[65] numLost:last 1
attr interpolationmode none
attr title "pings lost, last"
scalar BusLAN.host[0].pingApp[65] rtt:mean 0.0001869395870193
attr interpolationmode none
attr title "ping round-trip time, mean"
attr unit s
scalar BusLAN.host[0].pingApp[66] "Pings sent" 387
scalar BusLAN.host[0].pingApp[66] "ping loss rate (%)" 0
scalar BusLAN.host[0].pingApp[66] "ping out-of-order rate (%)" 0
scalar BusLAN.host[0].pingApp[66] pingRxSeq:count 293
attr interpolationmode none
attr title "ping rx seq, count"
scalar BusLAN.host[0].pingApp[66] pingTxSeq:count 293
attr interpolationmode none
attr title "ping tx seq, count"
scalar BusLAN.host[0].pingApp[66] numOutOfOrderArrivals:last nan
attr interpolationmode none
attr title "ping out-of-order arrivals, last"
scalar BusLAN.host[0].pingApp[66] numLost:last nan
attr interpolationmode none
attr title "pings lost, last"
scalar BusLAN.host[0].pingApp[66] rtt:mean 0.00035175156519318
attr interpolationmode none
attr title "ping round-trip time, mean"
attr unit s
scalar BusLAN.host[0].pingApp[67] "Pings sent" 384
scalar BusLAN.host[0].pingApp[67] "ping loss rate (%)" 0
scalar BusLAN.host[0].pingApp[67] "ping out-of-order rate (%)" 0
scalar BusLAN.host[0].pingApp[67] pingRxSeq:count 291
attr interpolationmode none
attr title "ping rx seq, count"
scalar BusLAN.host[0].pingApp[67] pingTxSeq:count 291
attr interpolationmode none
attr title "ping tx seq, count"
scalar BusLAN.host[0].pingApp[67] numOutOfOrderArrivals:last nan
attr interpolationmode none
attr title "ping out-of-order arrivals, last"
scalar BusLAN.host[0].pingApp[67] numLost:last nan
attr interpolationmode none
attr title "pings lost, last"
scalar BusLAN.host[0].pingApp[67] rtt:mean 0.00022633332141732
attr interpolationmode none
attr title "ping round-trip time, mean"
attr unit s
scalar BusLAN.host[0].pingApp[68] "Pings sent" 373
scalar BusLAN.host[0].pingApp[68] "ping loss rate (%)" 0
scalar BusLAN.host[0].pingApp[68] "ping out-of-order rate (%)" 0
scalar BusLAN.host[0].pingApp[68] pingRxSeq:count 277
attr interpolationmode none
attr title "ping rx seq, count"
scalar BusLAN.host[0].pingApp[68] pingTxSeq:count 277
attr interpolationmode none
attr title "ping tx seq, count"
scalar BusLAN.host[0].pingApp[68] numOutOfOrderArrivals:last nan
attr interpolationmode none
attr title "ping out-of-order arrivals, last"
scalar BusLAN.host[0].pingApp[68] numLost:last nan
attr interpolationmode none
attr title "pings lost, last"
scalar BusLAN.host[0].pingApp[68] rtt:mean 0.00022127756839683
attr interpolationmode none
attr title "ping round-trip time, mean"
attr unit s
scalar BusLAN.host[0].pingApp[69] "Pings sent" 397
scalar BusLAN.host[0].pingApp[69] "ping loss rate (%)" 0
scalar BusLAN.host[0].pingApp[69] "ping out-of-order rate (%)" 0
scalar BusLAN.host[0].pingApp[69] pingRxSeq:count 299
attr interpolationmode none
attr title "ping rx seq, count"
scalar BusLAN.host[0].pingApp[69] pingTxSeq:count 299
attr interpolationmode none
attr title "ping tx seq, count"
scalar BusLAN.host[0].pingApp[69] numOutOfOrderArrivals:last nan
attr interpolationmode none
attr title "ping out-of-order arrivals, last"
scalar BusLAN.host[0].pingApp[69] numLost:last nan
attr interpolationmode none
attr title "pings lost, last"
scalar BusLAN.host[0].pingApp[69] rtt:mean 0.0003153995865434
attr interpolationmode none
attr title "ping round-trip time, mean"
attr unit s
scalar BusLAN.host[0].pingApp[70] "Pings sent" 370
scalar BusLAN.host[0].pingApp[70] "ping loss rate (%)" 0
scalar BusLAN.host[0].pingApp[70] "ping out-of-order rate (%)" 0
scalar BusLAN.host[0].pingApp[70] pingRxSeq:count 281
attr interpolationmode none
attr title "ping rx seq, count"
scalar BusLAN.host[0].pingApp[70] pingTxSeq:count 281
attr interpolationmode none
attr title "ping tx seq, count"
scalar BusLAN.host[0].pingApp[70] numOutOfOrderArrivals:last nan
attr interpolationmode none
attr title "ping out-of-order arrivals, last"
scalar BusLAN.host[0].pingApp[70] numLost:last nan
attr interpolationmode none
attr title "pings lost, last"
scalar BusLAN.host[0].pingApp[70] rtt:mean 0.00034128269678175
attr interpolationmode none
attr title "ping round-trip time, mean"
attr unit s
scalar BusLAN.host[0].pingApp[71] "Pings sent" 387
scalar BusLAN.host[0].pingApp[71] "ping loss rate (%)" 0
scalar BusLAN.host[0].pingApp[71] "ping out-of-order rate (%)" 0
scalar BusLAN.host[0].pingApp[71] pingRxSeq:count 292
attr interpolationmode none
attr title "ping rx seq, count"
scalar BusLAN.host[0].pingApp[71] pingTxSeq:count 292
attr interpolationmode none
attr title "ping tx seq, count"
scalar BusLAN.host[0].pingApp[71] numOutOfOrderArrivals:last nan
attr interpolationmode none
attr title "ping out-of-order arrivals, last"
scalar BusLAN.host[0].pingApp[71] numLost:last nan
attr interpolationmode none
attr title "pings lost, last"
scalar BusLAN.host[0].pingApp[71] rtt:mean 0.00038539626907937
attr interpolationmode none
attr title "ping round-trip time, mean"
attr unit s
scalar BusLAN.host[0].pingApp[72] "Pings sent" 402
scalar BusLAN.host[0].pingApp[72] "ping loss rate (%)" 0
scalar BusLAN.host[0].pingApp[72] "ping out-of-order rate (%)" 0
scalar BusLAN.host[0].pingApp[72] pingRxSeq:count 300
attr interpolationmode none
attr title "ping rx seq, count"
scalar BusLAN.host[0].pingApp[72] pingTxSeq:count 300
attr interpolationmode none
attr title "ping tx seq, count"
scalar BusLAN.host[0].pingApp[72] numOutOfOrderArrivals:last nan
attr interpolationmode none
attr title "ping out-of-order arrivals, last"
scalar BusLAN.host[0].pingApp[72] numLost:last nan
attr interpolationmode none
attr title "pings lost, last"
scalar BusLAN.host[0].pingApp[72] rtt:mean 0.00021208408341445
attr interpolationmode none
attr title "ping round-trip time, mean"
attr unit s
scalar BusLAN.host[0].pingApp[73] "Pings sent" 394
scalar BusLAN.host[0].pingApp[73] "ping loss rate (%)" 0
scalar BusLAN.host[0].pingApp[73] "ping out-of-order rate (%)" 0
scalar BusLAN.host[0].pingApp[73] pingRxSeq:count 302
attr interpolationmode none
attr title "ping rx seq, count"
scalar BusLAN.host[0].pingApp[73] pingTxSeq:count 302
attr interpolationmode none
attr title "ping tx seq, count"
scalar BusLAN.host[0].pingApp[73] numOutOfOrderArrivals:last nan
attr interpolationmode none
attr title "ping out-of-order arrivals, last"
scalar BusLAN.host[0].pingApp[73] numLost:last nan
attr interpolationmode none
attr title "pings lost, last"
scalar BusLAN.host[0].pingApp[73] rtt:mean 0.00019368353562909
attr interpolationmode none
attr title "ping round-trip time, mean"
attr unit s
scalar BusLAN.host[0].pingApp[74] "Pings sent" 370
scalar BusLAN.host[0].pingApp[74] "ping loss rate (%)" 0
scalar BusLAN.host[0].pingApp[74] "ping out-of-order rate (%)" 0
scalar BusLAN.host[0].pingApp[74] pingRxSeq:count 282
attr interpolationmode none
attr title "ping rx seq, count"
scalar BusLAN.host[0].pingApp[74] pingTxSeq:count 282
attr interpolationmode none
attr title "ping tx seq, count"
scalar BusLAN.host[0].pingApp[74] numOutOfOrderArrivals:last nan
attr interpolationmode none
attr title "ping out-of-order arrivals, last"
scalar BusLAN.host[0].pingApp[74] numLost:last nan
attr interpolationmode none
attr title "pings lost, last"
scalar BusLAN.host[0].pingApp[74] rtt:mean 0.00029730991736905
attr interpolationmode none
attr title "ping round-trip time, mean"
attr unit s
scalar BusLAN.host[0].pingApp[75] "Pings sent" 396
scalar BusLAN.host[0].pingApp[75] "ping loss rate (%)" 0
scalar BusLAN.host[0].pingApp[75] "ping out-of-order rate (%)" 0
scalar BusLAN.host[0].pingApp[75] pingRxSeq:count 304
attr interpolationmode none
attr title "ping rx seq, count"
scalar BusLAN.host[0].pingApp[75] pingTxSeq:count 304
attr interpolationmode none
attr title "ping tx seq, count"
scalar BusLAN.host[0].pingApp[75] numOutOfOrderArrivals:last nan
attr interpolationmode none
attr title "ping out-of-order arrivals, last"
scalar BusLAN.host[0].pingApp[75] numLost:last nan
attr interpolationmode none
attr title "pings lost, last"
scalar BusLAN.host[0].pingApp[75] rtt:mean 0.00019357657807407
attr interpolationmode none
attr title "ping round-trip time, mean"
attr unit s
scalar BusLAN.host[0].pingApp[76] "Pings sent" 389
scalar BusLAN.host[0].pingApp[76] "ping loss rate (%)" 0
scalar BusLAN.host[0].pingApp[76] "ping out-of-order rate (%)" 0
scalar BusLAN.host[0].pingApp[76] pingRxSeq:count 292
attr interpolationmode none
attr title "ping rx seq, count"
scalar BusLAN.host[0].pingApp[76] pingTxSeq:count 292
attr interpolationmode none
attr title "ping tx seq, count"
scalar BusLAN.host[0].pingApp[76] numOutOfOrderArrivals:last nan
attr interpolationmode none
attr title "ping out-of-order arrivals, last"
scalar BusLAN.host[0].pingApp[76] numLost:last nan
attr interpolationmode none
attr title "pings lost, last"
scalar BusLAN.host[0].pingApp[76] rtt:mean 0.00026955883972137
attr interpolationmode none
attr title "ping round-trip time, mean"
attr unit s
scalar BusLAN.host[0].pingApp[77] "Pings sent" 382
scalar BusLAN.host[0].pingApp[77] "ping loss rate (%)" 0
scalar BusLAN.host[0].pingApp[77] "ping out-of-order rate (%)" 0
scalar BusLAN.host[0].pingApp[77] pingRxSeq:count 291
attr interpolationmode none
attr title "ping rx seq, count"
scalar BusLAN.host[0].pingApp[77] pingTxSeq:count 291
attr interpolationmode none
attr title "ping tx seq, count"
scalar BusLAN.host[0].pingApp[77] numOutOfOrderArrivals:last nan
attr interpolationmode none
attr title "ping out-of-order arrivals, last"
scalar BusLAN.host[0].pingApp[77] numLost:last nan
attr interpolationmode none
attr title "pings lost, last"
scalar BusLAN.host[0].pingApp[77] rtt:mean 0.00023230555722989
attr interpolationmode none
attr title "ping round-trip time, mean"
attr unit s
scalar BusLAN.host[0].pingApp[78] "Pings sent" 378
scalar BusLAN.host[0].pingApp[78] "ping loss rate (%)" 0
scalar BusLAN.host[0].pingApp[78] "ping out-of-order rate (%)" 0
scalar BusLAN.host[0].pingApp[78] pingRxSeq:count 287
attr interpolationmode none
attr title "ping rx seq, count"
scalar BusLAN.host[0].pingApp[78] pingTxSeq:count 287
attr interpolationmode none
attr title "ping tx seq, count"
scalar BusLAN.host[0].pingApp[78] numOutOfOrderArrivals:last nan
attr interpolationmode none
attr title "ping out-of-order arrivals, last"
scalar BusLAN.host[0].pingApp[78] numLost:last nan
attr interpolationmode none
attr title "pings lost, last"
scalar BusLAN.host[0].pingApp[78] rtt:mean 0.00012660098412355
attr interpolationmode none
attr title "ping round-trip time, mean"
attr unit s
scalar BusLAN.host[0].pingApp[79] "Pings sent" 396
scalar BusLAN.host[0].pingApp[79] "ping loss rate (%)" 0
scalar BusLAN.host[0].pingApp[79] "ping out-of-order rate (%)" 0
scalar BusLAN.host[0].pingApp[79] pingRxSeq:count 310
attr interpolationmode none
attr title "ping rx seq, count"
scalar BusLAN.host[0].pingApp[79] pingTxSeq:count 310
attr interpolationmode none
attr title "ping tx seq, count"
scalar BusLAN.host[0].pingApp[79] numOutOfOrderArrivals:last nan
attr interpolationmode none
attr title "ping out-of-order arrivals, last"
scalar BusLAN.host[0].pingApp[79] numLost:last nan
attr interpolationmode none
attr title "pings lost, last"
scalar BusLAN.host[0].pingApp[79] rtt:mean 0.00023752324063251
attr interpolationmode none
attr title "ping round-trip time, mean"
attr unit s
scalar BusLAN.host[0].pingApp[80] "Pings sent" 381
scalar BusLAN.host[0].pingApp[80] "ping loss rate (%)" 0
scalar BusLAN.host[0].pingApp[80] "ping out-of-order rate (%)" 0
scalar BusLAN.host[0].pingApp[80] pingRxSeq:count 286
attr interpolationmode none
attr title "ping rx seq, count"
scalar BusLAN.host[0].pingApp[80] pingTxSeq:count 286
attr interpolationmode none
attr title "ping tx seq, count"
scalar BusLAN.host[0].pingApp[80] numOutOfOrderArrivals:last nan
attr interpolationmode none
attr title "ping out-of-order arrivals, last"
scalar BusLAN.host[0].pingApp[80] numLost:last nan
attr interpolationmode none
attr title "pings lost, last"
scalar BusLAN.host[0].pingApp[80] rtt:mean 0.00014495399613492
attr interpolationmode none
attr title "ping round-trip time, mean"
attr unit s
scalar BusLAN.host[0].pingApp[81] "Pings sent" 398
scalar BusLAN.host[0].pingApp[81] "ping loss rate (%)" 0
scalar BusLAN.host[0].pingApp[81] "ping out-of-order rate (%)" 0
scalar BusLAN.host[0].pingApp[81] pingRxSeq:count 297
attr interpolationmode none
attr title "ping rx seq, count"
scalar BusLAN.host[0].pingApp[81] pingTxSeq:count 297
attr interpolationmode none
attr title "ping tx seq, count"
scalar BusLAN.host[0].pingApp[81] numOutOfOrderArrivals:last nan
attr interpolationmode none
attr title "ping out-of-order arrivals, last"
scalar BusLAN.host[0].pingApp[81] numLost:last nan
attr interpolationmode none
attr title "pings lost, last"
scalar BusLAN.host[0].pingApp[81] rtt:mean 0.00037594828904412
attr interpolationmode none
attr title "ping round-trip time, mean"
attr unit s
scalar BusLAN.host[0].pingApp[82] "Pings sent" 383
scalar BusLAN.host[0].pingApp[82] "ping loss rate (%)" 0
scalar BusLAN.host[0].pingApp[82] "ping out-of-order rate (%)" 0
scalar BusLAN.host[0].pingApp[82] pingRxSeq:count 286
attr interpolationmode none
attr title "ping rx seq, count"
scalar BusLAN.host[0].pingApp[82] pingTxSeq:count 286
attr interpolationmode none
attr title "ping tx seq, count"
scalar BusLAN.host[0].pingApp[82] numOutOfOrderArrivals:last nan
attr interpolationmode none
attr title "ping out-of-order arrivals, last"
scalar BusLAN.host[0].pingApp[82] numLost:last nan
attr interpolationmode none
attr title "pings lost, last"
scalar BusLAN.host[0].pingApp[82] rtt:mean 0.0002990004436537
attr interpolationmode none
attr title "ping round-trip time, mean"
attr unit s
scalar BusLAN.host[0].pingApp[83] "Pings sent" 382
scalar BusLAN.host[0].pingApp[83] "ping loss rate (%)" 0
scalar BusLAN.host[0].pingApp[83] "ping out-of-order rate (%)" 0
scalar BusLAN.host[0].pingApp[83] pingRxSeq:count 292
attr interpolationmode none
attr title "ping rx seq, count"
scalar BusLAN.host[0].pingApp[83] pingTxSeq:count 292
attr interpolationmode none
attr title "ping tx seq, count"
scalar BusLAN.host[0].pingApp[83] numOutOfOrderArrivals:last nan
attr interpolationmode none
attr title "ping out-of-order arrivals, last"
scalar BusLAN.host[0].pingApp[83] numLost:last nan
attr interpolationmode none
attr title "pings lost, last"
scalar BusLAN.host[0].pingApp[83] rtt:mean 0.00025510704955431
attr interpolationmode none
attr title "ping round-trip time, mean"
attr unit s
scalar BusLAN.host[0].pingApp[84] "Pings sent" 380
scalar BusLAN.host[0].pingApp[84] "ping loss rate (%)" 0
scalar BusLAN.host[0].pingApp[84] "ping out-of-order rate (%)" 0
scalar BusLAN.host[0].pingApp[84] pingRxSeq:count 291
attr interpolationmode none
attr title "ping rx seq, count"
scalar BusLAN.host[0].pingApp[84] pingTxSeq:count 291
attr interpolationmode none
attr title "ping tx seq, count"
scalar BusLAN.host[0].pingApp[84] numOutOfOrderArrivals:last nan
attr interpolationmode none
attr title "ping out-of-order arrivals, last"
scalar BusLAN.host[0].pingApp[84] numLost:last nan
attr interpolationmode none
attr title "pings lost, last"
scalar BusLAN.host[0].pingApp[84] rtt:mean 0.00019647537216342
attr interpolationmode none
attr title "ping round-trip time, mean"
attr unit s
scalar BusLAN.host[0].pingApp[85] "Pings sent" 382
scalar BusLAN.host[0].pingApp[85] "ping loss rate (%)" 0
scalar BusLAN.host[0].pingApp[85] "ping out-of-order rate (%)" 0
scalar BusLAN.host[0].pingApp[85] pingRxSeq:count 291
attr interpolationmode none
attr title "ping rx seq, count"
scalar BusLAN.host[0].pingApp[85] pingTxSeq:count 291
attr interpolationmode none
attr title "ping tx seq, count"
scalar BusLAN.host[0].pingApp[85] numOutOfOrderArrivals:last nan
attr interpolationmode none
attr title "ping out-of-order arrivals, last"
scalar BusLAN.host[0].pingApp[85] numLost:last nan
attr interpolationmode none
attr title "pings lost, last"
scalar BusLAN.host[0].pingApp[85] rtt:mean 0.00027014950645313
attr interpolationmode none
attr title "ping round-trip time, mean"
attr unit s
scalar BusLAN.host[0].pingApp[86] "Pings sent" 391
scalar BusLAN.host[0].pingApp[86] "ping loss rate (%)" 0
scalar BusLAN.host[0].pingApp[86] "ping out-of-order rate (%)" 0
scalar BusLAN.host[0].pingApp[86] pingRxSeq:count 299
attr interpolationmode none
attr title "ping rx seq, count"
scalar BusLAN.host[0].pingApp[86] pingTxSeq:count 299
attr interpolationmode none
attr title "ping tx seq, count"
scalar BusLAN.host[0].pingApp[86] numOutOfOrderArrivals:last nan
attr interpolationmode none
attr title "ping out-of-order arrivals, last"
scalar BusLAN.host[0].pingApp[86] numLost:last nan
attr interpolationmode none
attr title "pings lost, last"
scalar BusLAN.host[0].pingApp[86] rtt:mean 0.00038610602153261
attr interpolationmode none
attr title "ping round-trip time, mean"
attr unit s
scalar BusLAN.host[0].pingApp[87] "Pings sent" 390
scalar BusLAN.host[0].pingApp[87] "ping loss rate (%)" 0
scalar BusLAN.host[0].pingApp[87] "ping out-of-order rate (%)" 0
scalar BusLAN.host[0].pingApp[87] pingRxSeq:count 296
attr interpolationmode none
attr title "ping rx seq, count"
scalar BusLAN.host[0].pingApp[87] pingTxSeq:count 296
attr interpolationmode none
attr title "ping tx seq, count"
scalar BusLAN.host[0].pingApp[87] numOutOfOrderArrivals:last nan
attr interpolationmode none
attr title "ping out-of-order arrivals, last"
scalar BusLAN.host[0].pingApp[87] numLost:last nan
attr interpolationmode none
attr title "pings lost, last"
scalar BusLAN.host[0].pingApp[87] rtt:mean 0.00040590812607364
attr interpolationmode none
attr title "ping round-trip time, mean"
attr unit s
scalar BusLAN.host[0].pingApp[88] "Pings sent" 389
[...]
scalar BusLAN.host[9].pingApp[101] pingRxSeq:count 295
attr interpolationmode none
attr title "ping rx seq, count"
scalar BusLAN.host[9].pingApp[101] pingTxSeq:count 295
attr interpolationmode none
attr title "ping tx seq, count"
scalar BusLAN.host[9].pingApp[101] numOutOfOrderArrivals:last nan
attr interpolationmode none
attr title "ping out-of-order arrivals, last"
scalar BusLAN.host[9].pingApp[101] numLost:last nan
attr interpolationmode none
attr title "pings lost, last"
scalar BusLAN.host[9].pingApp[101] rtt:mean 0.0002871186281015
attr interpolationmode none
attr title "ping round-trip time, mean"
attr unit s
scalar BusLAN.host[9].pingApp[102] "Pings sent" 386
scalar BusLAN.host[9].pingApp[102] "ping loss rate (%)" 0
scalar BusLAN.host[9].pingApp[102] "ping out-of-order rate (%)" 0
scalar BusLAN.host[9].pingApp[102] pingRxSeq:count 283
attr interpolationmode none
attr title "ping rx seq, count"
scalar BusLAN.host[9].pingApp[102] pingTxSeq:count 283
attr interpolationmode none
attr title "ping tx seq, count"
scalar BusLAN.host[9].pingApp[102] numOutOfOrderArrivals:last nan
attr interpolationmode none
attr title "ping out-of-order arrivals, last"
scalar BusLAN.host[9].pingApp[102] numLost:last nan
attr interpolationmode none
attr title "pings lost, last"
scalar BusLAN.host[9].pingApp[102] rtt:mean 0.00019143984227376
attr interpolationmode none
attr title "ping round-trip time, mean"
attr unit s
scalar BusLAN.host[9].pingApp[103] "Pings sent" 386
scalar BusLAN.host[9].pingApp[103] "ping loss rate (%)" 0
scalar BusLAN.host[9].pingApp[103] "ping out-of-order rate (%)" 0
scalar BusLAN.host[9].pingApp[103] pingRxSeq:count 291
attr interpolationmode none
attr title "ping rx seq, count"
scalar BusLAN.host[9].pingApp[103] pingTxSeq:count 291
attr interpolationmode none
attr title "ping tx seq, count"
scalar BusLAN.host[9].pingApp[103] numOutOfOrderArrivals:last nan
attr interpolationmode none
attr title "ping out-of-order arrivals, last"
scalar BusLAN.host[9].pingApp[103] numLost:last nan
attr interpolationmode none
attr title "pings lost, last"
scalar BusLAN.host[9].pingApp[103] rtt:mean 0.00026379274445038
attr interpolationmode none
attr title "ping round-trip time, mean"
attr unit s
scalar BusLAN.host[9].pingApp[104] "Pings sent" 366
scalar BusLAN.host[9].pingApp[104] "ping loss rate (%)" 0
scalar BusLAN.host[9].pingApp[104] "ping out-of-order rate (%)" 0
scalar BusLAN.host[9].pingApp[104] pingRxSeq:count 275
attr interpolationmode none
attr title "ping rx seq, count"
scalar BusLAN.host[9].pingApp[104] pingTxSeq:count 275
attr interpolationmode none
attr title "ping tx seq, count"
scalar BusLAN.host[9].pingApp[104] numOutOfOrderArrivals:last nan
attr interpolationmode none
attr title "ping out-of-order arrivals, last"
scalar BusLAN.host[9].pingApp[104] numLost:last nan
attr interpolationmode none
attr title "pings lost, last"
scalar BusLAN.host[9].pingApp[104] rtt:mean 0.0003836006104187
attr interpolationmode none
attr title "ping round-trip time, mean"
attr unit s
scalar BusLAN.host[9].pingApp[105] "Pings sent" 387
scalar BusLAN.host[9].pingApp[105] "ping loss rate (%)" 0
scalar BusLAN.host[9].pingApp[105] "ping out-of-order rate (%)" 0
scalar BusLAN.host[9].pingApp[105] pingRxSeq:count 297
attr interpolationmode none
attr title "ping rx seq, count"
scalar BusLAN.host[9].pingApp[105] pingTxSeq:count 297
attr interpolationmode none
attr title "ping tx seq, count"
scalar BusLAN.host[9].pingApp[105] numOutOfOrderArrivals:last nan
attr interpolationmode none
attr title "ping out-of-order arrivals, last"
scalar BusLAN.host[9].pingApp[105] numLost:last nan
attr interpolationmode none
attr title "pings lost, last"
scalar BusLAN.host[9].pingApp[105] rtt:mean 9.5573984862454e-005
attr interpolationmode none
attr title "ping round-trip time, mean"
attr unit s
scalar BusLAN.host[9].pingApp[106] "Pings sent" 380
scalar BusLAN.host[9].pingApp[106] "ping loss rate (%)" 0
scalar BusLAN.host[9].pingApp[106] "ping out-of-order rate (%)" 0
scalar BusLAN.host[9].pingApp[106] pingRxSeq:count 286
attr interpolationmode none
attr title "ping rx seq, count"
scalar BusLAN.host[9].pingApp[106] pingTxSeq:count 286
attr interpolationmode none
attr title "ping tx seq, count"
scalar BusLAN.host[9].pingApp[106] numOutOfOrderArrivals:last nan
attr interpolationmode none
attr title "ping out-of-order arrivals, last"
scalar BusLAN.host[9].pingApp[106] numLost:last nan
attr interpolationmode none
attr title "pings lost, last"
scalar BusLAN.host[9].pingApp[106] rtt:mean 0.00025790148122709
attr interpolationmode none
attr title "ping round-trip time, mean"
attr unit s
scalar BusLAN.host[9].pingApp[107] "Pings sent" 397
scalar BusLAN.host[9].pingApp[107] "ping loss rate (%)" 0
scalar BusLAN.host[9].pingApp[107] "ping out-of-order rate (%)" 0
scalar BusLAN.host[9].pingApp[107] pingRxSeq:count 299
attr interpolationmode none
attr title "ping rx seq, count"
scalar BusLAN.host[9].pingApp[107] pingTxSeq:count 299
attr interpolationmode none
attr title "ping tx seq, count"
scalar BusLAN.host[9].pingApp[107] numOutOfOrderArrivals:last nan
attr interpolationmode none
attr title "ping out-of-order arrivals, last"
scalar BusLAN.host[9].pingApp[107] numLost:last nan
attr interpolationmode none
attr title "pings lost, last"
scalar BusLAN.host[9].pingApp[107] rtt:mean 0.00040513937812109
attr interpolationmode none
attr title "ping round-trip time, mean"
attr unit s
scalar BusLAN.host[9].pingApp[108] "Pings sent" 376
scalar BusLAN.host[9].pingApp[108] "ping loss rate (%)" 0
scalar BusLAN.host[9].pingApp[108] "ping out-of-order rate (%)" 0
scalar BusLAN.host[9].pingApp[108] pingRxSeq:count 286
attr interpolationmode none
attr title "ping rx seq, count"
scalar BusLAN.host[9].pingApp[108] pingTxSeq:count 286
attr interpolationmode none
attr title "ping tx seq, count"
scalar BusLAN.host[9].pingApp[108] numOutOfOrderArrivals:last nan
attr interpolationmode none
attr title "ping out-of-order arrivals, last"
scalar BusLAN.host[9].pingApp[108] numLost:last nan
attr interpolationmode none
attr title "pings lost, last"
scalar BusLAN.host[9].pingApp[108] rtt:mean 0.00018725439968627
attr interpolationmode none
attr title "ping round-trip time, mean"
attr unit s
scalar BusLAN.host[9].pingApp[109] "Pings sent" 388
scalar BusLAN.host[9].pingApp[109] "ping loss rate (%)" 0
scalar BusLAN.host[9].pingApp[109] "ping out-of-order rate (%)" 0
scalar BusLAN.host[9].pingApp[109] pingRxSeq:count 290
attr interpolationmode none
attr title "ping rx seq, count"
scalar BusLAN.host[9].pingApp[109] pingTxSeq:count 290
attr interpolationmode none
attr title "ping tx seq, count"
scalar BusLAN.host[9].pingApp[109] numOutOfOrderArrivals:last nan
attr interpolationmode none
attr title "ping out-of-order arrivals, last"
scalar BusLAN.host[9].pingApp[109] numLost:last nan
attr interpolationmode none
attr title "pings lost, last"
scalar BusLAN.host[9].pingApp[109] rtt:mean 0.00026541408030651
attr interpolationmode none
attr title "ping round-trip time, mean"
attr unit s
scalar BusLAN.host[9].pingApp[110] "Pings sent" 392
scalar BusLAN.host[9].pingApp[110] "ping loss rate (%)" 0
scalar BusLAN.host[9].pingApp[110] "ping out-of-order rate (%)" 0
scalar BusLAN.host[9].pingApp[110] pingRxSeq:count 299
attr interpolationmode none
attr title "ping rx seq, count"
scalar BusLAN.host[9].pingApp[110] pingTxSeq:count 299
attr interpolationmode none
attr title "ping tx seq, count"
scalar BusLAN.host[9].pingApp[110] numOutOfOrderArrivals:last nan
attr interpolationmode none
attr title "ping out-of-order arrivals, last"
scalar BusLAN.host[9].pingApp[110] numLost:last nan
attr interpolationmode none
attr title "pings lost, last"
scalar BusLAN.host[9].pingApp[110] rtt:mean 0.00032617150195833
attr interpolationmode none
attr title "ping round-trip time, mean"
attr unit s
scalar BusLAN.host[9].pingApp[111] "Pings sent" 391
scalar BusLAN.host[9].pingApp[111] "ping loss rate (%)" 0
scalar BusLAN.host[9].pingApp[111] "ping out-of-order rate (%)" 0
scalar BusLAN.host[9].pingApp[111] pingRxSeq:count 296
attr interpolationmode none
attr title "ping rx seq, count"
scalar BusLAN.host[9].pingApp[111] pingTxSeq:count 296
attr interpolationmode none
attr title "ping tx seq, count"
scalar BusLAN.host[9].pingApp[111] numOutOfOrderArrivals:last nan
attr interpolationmode none
attr title "ping out-of-order arrivals, last"
scalar BusLAN.host[9].pingApp[111] numLost:last nan
attr interpolationmode none
attr title "pings lost, last"
scalar BusLAN.host[9].pingApp[111] rtt:mean 0.00022343902974545
attr interpolationmode none
attr title "ping round-trip time, mean"
attr unit s
scalar BusLAN.host[9].pingApp[112] "Pings sent" 384
scalar BusLAN.host[9].pingApp[112] "ping loss rate (%)" 0
scalar BusLAN.host[9].pingApp[112] "ping out-of-order rate (%)" 0
scalar BusLAN.host[9].pingApp[112] pingRxSeq:count 287
attr interpolationmode none
attr title "ping rx seq, count"
scalar BusLAN.host[9].pingApp[112] pingTxSeq:count 287
attr interpolationmode none
attr title "ping tx seq, count"
scalar BusLAN.host[9].pingApp[112] numOutOfOrderArrivals:last nan
attr interpolationmode none
attr title "ping out-of-order arrivals, last"
scalar BusLAN.host[9].pingApp[112] numLost:last nan
attr interpolationmode none
attr title "pings lost, last"
scalar BusLAN.host[9].pingApp[112] rtt:mean 0.00016537090320769
attr interpolationmode none
attr title "ping round-trip time, mean"
attr unit s
scalar BusLAN.host[9].pingApp[113] "Pings sent" 381
scalar BusLAN.host[9].pingApp[113] "ping loss rate (%)" 0
scalar BusLAN.host[9].pingApp[113] "ping out-of-order rate (%)" 0
scalar BusLAN.host[9].pingApp[113] pingRxSeq:count 291
attr interpolationmode none
attr title "ping rx seq, count"
scalar BusLAN.host[9].pingApp[113] pingTxSeq:count 291
attr interpolationmode none
attr title "ping tx seq, count"
scalar BusLAN.host[9].pingApp[113] numOutOfOrderArrivals:last nan
attr interpolationmode none
attr title "ping out-of-order arrivals, last"
scalar BusLAN.host[9].pingApp[113] numLost:last nan
attr interpolationmode none
attr title "pings lost, last"
scalar BusLAN.host[9].pingApp[113] rtt:mean 0.00018300720300784
attr interpolationmode none
attr title "ping round-trip time, mean"
attr unit s
scalar BusLAN.host[9].pingApp[114] "Pings sent" 364
scalar BusLAN.host[9].pingApp[114] "ping loss rate (%)" 0
scalar BusLAN.host[9].pingApp[114] "ping out-of-order rate (%)" 0
scalar BusLAN.host[9].pingApp[114] pingRxSeq:count 280
attr interpolationmode none
attr title "ping rx seq, count"
scalar BusLAN.host[9].pingApp[114] pingTxSeq:count 280
attr interpolationmode none
attr title "ping tx seq, count"
scalar BusLAN.host[9].pingApp[114] numOutOfOrderArrivals:last nan
attr interpolationmode none
attr title "ping out-of-order arrivals, last"
scalar BusLAN.host[9].pingApp[114] numLost:last nan
attr interpolationmode none
attr title "pings lost, last"
scalar BusLAN.host[9].pingApp[114] rtt:mean 0.00030416547678175
attr interpolationmode none
attr title "ping round-trip time, mean"
attr unit s
scalar BusLAN.host[9].pingApp[115] "Pings sent" 380
scalar BusLAN.host[9].pingApp[115] "ping loss rate (%)" 0
scalar BusLAN.host[9].pingApp[115] "ping out-of-order rate (%)" 0
scalar BusLAN.host[9].pingApp[115] pingRxSeq:count 286
attr interpolationmode none
attr title "ping rx seq, count"
scalar BusLAN.host[9].pingApp[115] pingTxSeq:count 286
attr interpolationmode none
attr title "ping tx seq, count"
scalar BusLAN.host[9].pingApp[115] numOutOfOrderArrivals:last nan
attr interpolationmode none
attr title "ping out-of-order arrivals, last"
scalar BusLAN.host[9].pingApp[115] numLost:last nan
attr interpolationmode none
attr title "pings lost, last"
scalar BusLAN.host[9].pingApp[115] rtt:mean 0.00027837675236471
attr interpolationmode none
attr title "ping round-trip time, mean"
attr unit s
scalar BusLAN.host[9].pingApp[116] "Pings sent" 393
scalar BusLAN.host[9].pingApp[116] "ping loss rate (%)" 0
scalar BusLAN.host[9].pingApp[116] "ping out-of-order rate (%)" 0
scalar BusLAN.host[9].pingApp[116] pingRxSeq:count 289
attr interpolationmode none
attr title "ping rx seq, count"
scalar BusLAN.host[9].pingApp[116] pingTxSeq:count 289
attr interpolationmode none
attr title "ping tx seq, count"
scalar BusLAN.host[9].pingApp[116] numOutOfOrderArrivals:last nan
attr interpolationmode none
attr title "ping out-of-order arrivals, last"
scalar BusLAN.host[9].pingApp[116] numLost:last nan
attr interpolationmode none
attr title "pings lost, last"
scalar BusLAN.host[9].pingApp[116] rtt:mean 0.0002470367478
attr interpolationmode none
attr title "ping round-trip time, mean"
attr unit s
scalar BusLAN.host[9].pingApp[117] "Pings sent" 387
scalar BusLAN.host[9].pingApp[117] "ping loss rate (%)" 0.25839793281654
scalar BusLAN.host[9].pingApp[117] "ping out-of-order rate (%)" 0
scalar BusLAN.host[9].pingApp[117] pingRxSeq:count 282
attr interpolationmode none
attr title "ping rx seq, count"
scalar BusLAN.host[9].pingApp[117] pingTxSeq:count 283
attr interpolationmode none
attr title "ping tx seq, count"
scalar BusLAN.host[9].pingApp[117] numOutOfOrderArrivals:last nan
attr interpolationmode none
attr title "ping out-of-order arrivals, last"
scalar BusLAN.host[9].pingApp[117] numLost:last 1
attr interpolationmode none
attr title "pings lost, last"
scalar BusLAN.host[9].pingApp[117] rtt:mean 0.00015147580346512
attr interpolationmode none
attr title "ping round-trip time, mean"
attr unit s
scalar BusLAN.host[9].pingApp[118] "Pings sent" 405
scalar BusLAN.host[9].pingApp[118] "ping loss rate (%)" 0
scalar BusLAN.host[9].pingApp[118] "ping out-of-order rate (%)" 0
scalar BusLAN.host[9].pingApp[118] pingRxSeq:count 308
attr interpolationmode none
attr title "ping rx seq, count"
scalar BusLAN.host[9].pingApp[118] pingTxSeq:count 308
attr interpolationmode none
attr title "ping tx seq, count"
scalar BusLAN.host[9].pingApp[118] numOutOfOrderArrivals:last nan
attr interpolationmode none
attr title "ping out-of-order arrivals, last"
scalar BusLAN.host[9].pingApp[118] numLost:last nan
attr interpolationmode none
attr title "pings lost, last"
scalar BusLAN.host[9].pingApp[118] rtt:mean 0.00034644875472183
attr interpolationmode none
attr title "ping round-trip time, mean"
attr unit s
scalar BusLAN.host[9].pingApp[119] "Pings sent" 384
scalar BusLAN.host[9].pingApp[119] "ping loss rate (%)" 0
scalar BusLAN.host[9].pingApp[119] "ping out-of-order rate (%)" 0
scalar BusLAN.host[9].pingApp[119] pingRxSeq:count 294
attr interpolationmode none
attr title "ping rx seq, count"
scalar BusLAN.host[9].pingApp[119] pingTxSeq:count 294
attr interpolationmode none
attr title "ping tx seq, count"
scalar BusLAN.host[9].pingApp[119] numOutOfOrderArrivals:last nan
attr interpolationmode none
attr title "ping out-of-order arrivals, last"
scalar BusLAN.host[9].pingApp[119] numLost:last nan
attr interpolationmode none
attr title "pings lost, last"
scalar BusLAN.host[9].pingApp[119] rtt:mean 0.0002054622973935
attr interpolationmode none
attr title "ping round-trip time, mean"
attr unit s
scalar BusLAN.host[9].pingApp[120] "Pings sent" 371
scalar BusLAN.host[9].pingApp[120] "ping loss rate (%)" 0
scalar BusLAN.host[9].pingApp[120] "ping out-of-order rate (%)" 0
scalar BusLAN.host[9].pingApp[120] pingRxSeq:count 285
attr interpolationmode none
attr title "ping rx seq, count"
scalar BusLAN.host[9].pingApp[120] pingTxSeq:count 285
attr interpolationmode none
attr title "ping tx seq, count"
scalar BusLAN.host[9].pingApp[120] numOutOfOrderArrivals:last nan
attr interpolationmode none
attr title "ping out-of-order arrivals, last"
scalar BusLAN.host[9].pingApp[120] numLost:last nan
attr interpolationmode none
attr title "pings lost, last"
scalar BusLAN.host[9].pingApp[120] rtt:mean 0.00018925643766008
attr interpolationmode none
attr title "ping round-trip time, mean"
attr unit s
scalar BusLAN.host[9].pingApp[121] "Pings sent" 369
scalar BusLAN.host[9].pingApp[121] "ping loss rate (%)" 0
scalar BusLAN.host[9].pingApp[121] "ping out-of-order rate (%)" 0
scalar BusLAN.host[9].pingApp[121] pingRxSeq:count 276
attr interpolationmode none
attr title "ping rx seq, count"
scalar BusLAN.host[9].pingApp[121] pingTxSeq:count 276
attr interpolationmode none
attr title "ping tx seq, count"
scalar BusLAN.host[9].pingApp[121] numOutOfOrderArrivals:last nan
attr interpolationmode none
attr title "ping out-of-order arrivals, last"
scalar BusLAN.host[9].pingApp[121] numLost:last nan
attr interpolationmode none
attr title "pings lost, last"
scalar BusLAN.host[9].pingApp[121] rtt:mean 0.00034041524325403
attr interpolationmode none
attr title "ping round-trip time, mean"
attr unit s
scalar BusLAN.host[9].pingApp[122] "Pings sent" 376
scalar BusLAN.host[9].pingApp[122] "ping loss rate (%)" 0
scalar BusLAN.host[9].pingApp[122] "ping out-of-order rate (%)" 0
scalar BusLAN.host[9].pingApp[122] pingRxSeq:count 288
attr interpolationmode none
attr title "ping rx seq, count"
scalar BusLAN.host[9].pingApp[122] pingTxSeq:count 288
attr interpolationmode none
attr title "ping tx seq, count"
scalar BusLAN.host[9].pingApp[122] numOutOfOrderArrivals:last nan
attr interpolationmode none
attr title "ping out-of-order arrivals, last"
scalar BusLAN.host[9].pingApp[122] numLost:last nan
attr interpolationmode none
attr title "pings lost, last"
scalar BusLAN.host[9].pingApp[122] rtt:mean 0.00032039893825681
attr interpolationmode none
attr title "ping round-trip time, mean"
attr unit s
scalar BusLAN.host[9].pingApp[123] "Pings sent" 398
scalar BusLAN.host[9].pingApp[123] "ping loss rate (%)" 0
scalar BusLAN.host[9].pingApp[123] "ping out-of-order rate (%)" 0
scalar BusLAN.host[9].pingApp[123] pingRxSeq:count 311
attr interpolationmode none
attr title "ping rx seq, count"
scalar BusLAN.host[9].pingApp[123] pingTxSeq:count 311
attr interpolationmode none
attr title "ping tx seq, count"
scalar BusLAN.host[9].pingApp[123] numOutOfOrderArrivals:last nan
attr interpolationmode none
attr title "ping out-of-order arrivals, last"
scalar BusLAN.host[9].pingApp[123] numLost:last nan
attr interpolationmode none
attr title "pings lost, last"
scalar BusLAN.host[9].pingApp[123] rtt:mean 0.00031647093549635
attr interpolationmode none
attr title "ping round-trip time, mean"
attr unit s
scalar BusLAN.host[9].pingApp[124] "Pings sent" 380
scalar BusLAN.host[9].pingApp[124] "ping loss rate (%)" 0
scalar BusLAN.host[9].pingApp[124] "ping out-of-order rate (%)" 0
scalar BusLAN.host[9].pingApp[124] pingRxSeq:count 287
attr interpolationmode none
attr title "ping rx seq, count"
scalar BusLAN.host[9].pingApp[124] pingTxSeq:count 287
attr interpolationmode none
attr title "ping tx seq, count"
scalar BusLAN.host[9].pingApp[124] numOutOfOrderArrivals:last nan
attr interpolationmode none
attr title "ping out-of-order arrivals, last"
scalar BusLAN.host[9].pingApp[124] numLost:last nan
attr interpolationmode none
attr title "pings lost, last"
scalar BusLAN.host[9].pingApp[124] rtt:mean 0.00027221018093281
attr interpolationmode none
attr title "ping round-trip time, mean"
attr unit s
scalar BusLAN.host[9].pingApp[125] "Pings sent" 392
scalar BusLAN.host[9].pingApp[125] "ping loss rate (%)" 0
scalar BusLAN.host[9].pingApp[125] "ping out-of-order rate (%)" 0
scalar BusLAN.host[9].pingApp[125] pingRxSeq:count 292
attr interpolationmode none
attr title "ping rx seq, count"
scalar BusLAN.host[9].pingApp[125] pingTxSeq:count 292
attr interpolationmode none
attr title "ping tx seq, count"
scalar BusLAN.host[9].pingApp[125] numOutOfOrderArrivals:last nan
attr interpolationmode none
attr title "ping out-of-order arrivals, last"
scalar BusLAN.host[9].pingApp[125] numLost:last nan
attr interpolationmode none
attr title "pings lost, last"
scalar BusLAN.host[9].pingApp[125] rtt:mean 0.00025566426579377
attr interpolationmode none
attr title "ping round-trip time, mean"
attr unit s
scalar BusLAN.bus "simulated time" 20
scalar BusLAN.bus "messages handled" 0
scalar BusLAN.bus messages/sec 0

