version 2
run BusLAN10-datarate-1-20180110-20:22:34-8836
attr configname BusLAN10-datarate
attr datetime 20180110-20:22:34
attr experiment BusLAN10-datarate
attr inifile BusLAN.ini
attr iterationvars $pa=16
attr iterationvarsf pa=16-
attr measurement $pa=16
attr network BusLAN
attr processid 8836
attr repetition 0
attr replication #0
attr resultdir results
attr runnumber 1
attr seedset 1
itervar pa 16
param *.numHosts 10
param **.datarate 100Mbps
param **.host[*].pingApp[*].sendInterval "truncnormal(50ms, 25ms)"
param **.host[*].pingApp[*].packetSize "truncnormal(1024B, 512B)"
param **.queueType "\"DropTailQueue\""
param **.frameCapacity 10
param **.mtu 1024B
param **.host[*].numPingApps 16
param **.host[*].pingApp[*].typename "\"PingApp\""
param **.host[*].pingApp[*].count 1
param **.host[*].pingApp[*].startTime "truncnormal(200ms, 100ms)"
param **.host[*].pingApp[*].destAddr "\"*\""

scalar BusLAN.host[0].networkLayer.arp sentReply:count 0
attr title "ARP replies sent, count"
scalar BusLAN.host[0].networkLayer.arp sentReq:count 0
attr title "ARP request sent, count"
scalar BusLAN.host[0].networkLayer.arp failedARPResolution:count 0
attr title "ARP failed resolutions, count"
scalar BusLAN.host[0].networkLayer.arp completedARPResolution:count 0
attr title "ARP completed resolutions, count"
scalar BusLAN.host[0].networkLayer.arp initiatedARPResolution:count 0
attr title "ARP initiated resolutions, count"
scalar BusLAN.host[0].lo0.lo droppedPkBitError:count 0
attr interpolationmode none
attr source dropPkBitError
attr title "packets dropped/bit error, count"
scalar BusLAN.host[0].lo0.lo droppedPkBitError:sum(packetBytes) 0
attr interpolationmode none
attr source dropPkBitError
attr title "packets dropped/bit error, sum(packetBytes)"
scalar BusLAN.host[0].lo0.lo rcvdPkFromHL:count 1362
attr interpolationmode none
attr source packetReceivedFromUpper
attr title "packets received from higher layer, count"
scalar BusLAN.host[0].lo0.lo rcvdPkFromHL:sum(packetBytes) 975242
attr interpolationmode none
attr source packetReceivedFromUpper
attr title "packets received from higher layer, sum(packetBytes)"
scalar BusLAN.host[0].lo0.lo passedUpPk:count 1362
attr interpolationmode none
attr source packetSentToUpper
attr title "packets passed to higher layer, count"
scalar BusLAN.host[0].lo0.lo passedUpPk:sum(packetBytes) 975242
attr interpolationmode none
attr source packetSentToUpper
attr title "packets passed to higher layer, sum(packetBytes)"
scalar BusLAN.host[0].eth[0].queue.pauseQueue queueLength:max nan
attr interpolationmode sample-hold
attr title "queue length, max"
scalar BusLAN.host[0].eth[0].queue.pauseQueue queueLength:timeavg nan
attr interpolationmode sample-hold
attr title "queue length, timeavg"
statistic BusLAN.host[0].eth[0].queue.pauseQueue queueingTime:histogram
field count 0
field mean nan
field stddev nan
field min nan
field max nan
field sum 0
field sqrsum 0
attr interpolationmode none
attr title "queueing time, histogram"
bin	-inf	0
bin	-0.5	0
bin	-0.46666666666667	0
bin	-0.43333333333333	0
bin	-0.4	0
bin	-0.36666666666667	0
bin	-0.33333333333333	0
bin	-0.3	0
bin	-0.26666666666667	0
bin	-0.23333333333333	0
bin	-0.2	0
bin	-0.16666666666667	0
bin	-0.13333333333333	0
bin	-0.1	0
bin	-0.066666666666667	0
bin	-0.033333333333333	0
bin	0	0
bin	0.033333333333333	0
bin	0.066666666666667	0
bin	0.1	0
bin	0.13333333333333	0
bin	0.16666666666667	0
bin	0.2	0
bin	0.23333333333333	0
bin	0.26666666666667	0
bin	0.3	0
bin	0.33333333333333	0
bin	0.36666666666667	0
bin	0.4	0
bin	0.43333333333333	0
bin	0.46666666666667	0
bin	0.5	0
scalar BusLAN.host[0].eth[0].queue.pauseQueue dropPk:count 0
attr interpolationmode none
attr source dropPkByQueue
attr title "dropped packets, count"
scalar BusLAN.host[0].eth[0].queue.pauseQueue dropPk:sum(packetBytes) 0
attr interpolationmode none
attr source dropPkByQueue
attr title "dropped packets, sum(packetBytes)"
scalar BusLAN.host[0].eth[0].queue.pauseQueue rcvdPk:count 0
attr interpolationmode none
attr title "received packets, count"
scalar BusLAN.host[0].eth[0].queue.pauseQueue rcvdPk:sum(packetBytes) 0
attr interpolationmode none
attr title "received packets, sum(packetBytes)"
scalar BusLAN.host[0].eth[0].queue.dataQueue queueLength:max 6
attr interpolationmode sample-hold
attr title "queue length, max"
scalar BusLAN.host[0].eth[0].queue.dataQueue queueLength:timeavg 0.031188898890356
attr interpolationmode sample-hold
attr title "queue length, timeavg"
statistic BusLAN.host[0].eth[0].queue.dataQueue queueingTime:histogram
field count 13337
field mean 3.5076507365528e-005
field stddev 4.6566680661008e-005
field min 0
field max 0.000366735182
field sum 0.46781537873404
field sqrsum 4.5327855430323e-005
attr interpolationmode none
attr title "queueing time, histogram"
bin	-inf	0
bin	-8.464e-005	0
bin	-7.3354666666667e-005	0
bin	-6.2069333333333e-005	0
bin	-5.0784e-005	0
bin	-3.9498666666667e-005	0
bin	-2.8213333333333e-005	0
bin	-1.6928e-005	0
bin	-5.6426666666667e-006	8078
bin	5.6426666666667e-006	50
bin	1.6928e-005	53
bin	2.8213333333333e-005	47
bin	3.9498666666667e-005	44
bin	5.0784e-005	41
bin	6.2069333333333e-005	32
bin	7.3354666666667e-005	29
bin	8.464e-005	4463
bin	9.5925333333333e-005	56
bin	0.00010721066666667	39
bin	0.000118496	41
bin	0.00012978133333333	37
bin	0.00014106666666667	19
bin	0.000152352	22
bin	0.00016363733333333	223
bin	0.00017492266666667	19
bin	0.000186208	14
bin	0.00019749333333333	5
bin	0.00020877866666667	9
bin	0.000220064	4
bin	0.00023134933333333	2
bin	0.00024263466666667	1
bin	0.00025392	9
scalar BusLAN.host[0].eth[0].queue.dataQueue dropPk:count 0
attr interpolationmode none
attr source dropPkByQueue
attr title "dropped packets, count"
scalar BusLAN.host[0].eth[0].queue.dataQueue dropPk:sum(packetBytes) 0
attr interpolationmode none
attr source dropPkByQueue
attr title "dropped packets, sum(packetBytes)"
scalar BusLAN.host[0].eth[0].queue.dataQueue rcvdPk:count 13337
attr interpolationmode none
attr title "received packets, count"
scalar BusLAN.host[0].eth[0].queue.dataQueue rcvdPk:sum(packetBytes) 9616212
attr interpolationmode none
attr title "received packets, sum(packetBytes)"
scalar BusLAN.host[0].eth[0].mac "simulated time" 20
scalar BusLAN.host[0].eth[0].mac full-duplex 1
scalar BusLAN.host[0].eth[0].mac "frames/sec sent" 891.7
scalar BusLAN.host[0].eth[0].mac "frames/sec rcvd" 893.5
scalar BusLAN.host[0].eth[0].mac "bits/sec sent" 5139560.4
scalar BusLAN.host[0].eth[0].mac "bits/sec rcvd" 5140482
scalar BusLAN.host[0].eth[0].mac "rx channel idle (%)" 55.0236916
scalar BusLAN.host[0].eth[0].mac "rx channel utilization (%)" 44.9763084
scalar BusLAN.host[0].eth[0].mac rxPkFromHL:count 13337
attr interpolationmode none
attr source rxPkFromHL
attr title "packet bytes from higher layer, count"
scalar BusLAN.host[0].eth[0].mac rxPkFromHL:sum(packetBytes) 9616212
attr interpolationmode none
attr source rxPkFromHL
attr title "packet bytes from higher layer, sum(packetBytes)"
scalar BusLAN.host[0].eth[0].mac rxPausePkUnits:count 0
attr interpolationmode none
attr title "pause units received, count"
scalar BusLAN.host[0].eth[0].mac rxPausePkUnits:sum 0
attr interpolationmode none
attr title "pause units received, sum"
scalar BusLAN.host[0].eth[0].mac txPausePkUnits:count 0
attr interpolationmode none
attr title "pause units sent, count"
scalar BusLAN.host[0].eth[0].mac txPausePkUnits:sum 0
attr interpolationmode none
attr title "pause units sent, sum"
scalar BusLAN.host[0].eth[0].mac txPk:count 13337
attr interpolationmode none
attr source txPk
attr title "packets transmitted, count"
scalar BusLAN.host[0].eth[0].mac txPk:sum(packetBytes) 9616212
attr interpolationmode none
attr source txPk
attr title "packets transmitted, sum(packetBytes)"
scalar BusLAN.host[0].eth[0].mac droppedPkNotForUs:count 105996
attr interpolationmode none
attr source dropPkNotForUs
attr title "packets dropped/not for us, count"
scalar BusLAN.host[0].eth[0].mac droppedPkNotForUs:sum(packetBytes) 74731062
attr interpolationmode none
attr source dropPkNotForUs
attr title "packets dropped/not for us, sum(packetBytes)"
scalar BusLAN.host[0].eth[0].mac droppedPkBitError:count 0
attr interpolationmode none
attr source dropPkBitError
attr title "packets dropped/bit error, count"
scalar BusLAN.host[0].eth[0].mac droppedPkBitError:sum(packetBytes) 0
attr interpolationmode none
attr source dropPkBitError
attr title "packets dropped/bit error, sum(packetBytes)"
scalar BusLAN.host[0].eth[0].mac droppedPkIfaceDown:count 0
attr interpolationmode none
attr source dropPkIfaceDown
attr title "packets dropped/interface down, count"
scalar BusLAN.host[0].eth[0].mac droppedPkIfaceDown:sum(packetBytes) 0
attr interpolationmode none
attr source dropPkIfaceDown
attr title "packets dropped/interface down, sum(packetBytes)"
scalar BusLAN.host[0].eth[0].mac rxPkOk:count 13337
attr interpolationmode none
attr source rxPkOk
attr title "packets received OK, count"
scalar BusLAN.host[0].eth[0].mac rxPkOk:sum(packetBytes) 9616212
attr interpolationmode none
attr source rxPkOk
attr title "packets received OK, sum(packetBytes)"
scalar BusLAN.host[0].eth[0].mac passedUpPk:count 13337
attr interpolationmode none
attr source packetSentToUpper
attr title "packets passed to higher layer, count"
scalar BusLAN.host[0].eth[0].mac passedUpPk:sum(packetBytes) 9616212
attr interpolationmode none
attr source packetSentToUpper
attr title "packets passed to higher layer, sum(packetBytes)"
scalar BusLAN.host[0].eth[0].encap pauseSent:count 0
attr title "pause sent, count"
scalar BusLAN.host[0].eth[0].encap pauseSent:sum 0
attr title "pause sent, sum"
scalar BusLAN.host[0].eth[0].encap decapPk:count 13337
attr interpolationmode none
attr source decapPk
attr title "packets decapsulated, count"
scalar BusLAN.host[0].eth[0].encap decapPk:sum(packetBytes) 9374802
attr interpolationmode none
attr source decapPk
attr title "packets decapsulated, sum(packetBytes)"
scalar BusLAN.host[0].eth[0].encap encapPk:count 13337
attr interpolationmode none
attr source encapPk
attr title "packets encapsulated, count"
scalar BusLAN.host[0].eth[0].encap encapPk:sum(packetBytes) 9374802
attr interpolationmode none
attr source encapPk
attr title "packets encapsulated, sum(packetBytes)"
scalar BusLAN.host[0].pingApp[0] "Pings sent" 375
scalar BusLAN.host[0].pingApp[0] "ping loss rate (%)" 0
scalar BusLAN.host[0].pingApp[0] "ping out-of-order rate (%)" 0
scalar BusLAN.host[0].pingApp[0] pingRxSeq:count 287
attr interpolationmode none
attr title "ping rx seq, count"
scalar BusLAN.host[0].pingApp[0] pingTxSeq:count 287
attr interpolationmode none
attr title "ping tx seq, count"
scalar BusLAN.host[0].pingApp[0] numOutOfOrderArrivals:last nan
attr interpolationmode none
attr title "ping out-of-order arrivals, last"
scalar BusLAN.host[0].pingApp[0] numLost:last nan
attr interpolationmode none
attr title "pings lost, last"
scalar BusLAN.host[0].pingApp[0] rtt:mean 0.00027178346395455
attr interpolationmode none
attr title "ping round-trip time, mean"
attr unit s
scalar BusLAN.host[0].pingApp[1] "Pings sent" 393
scalar BusLAN.host[0].pingApp[1] "ping loss rate (%)" 0
scalar BusLAN.host[0].pingApp[1] "ping out-of-order rate (%)" 0
scalar BusLAN.host[0].pingApp[1] pingRxSeq:count 308
attr interpolationmode none
attr title "ping rx seq, count"
scalar BusLAN.host[0].pingApp[1] pingTxSeq:count 308
attr interpolationmode none
attr title "ping tx seq, count"
scalar BusLAN.host[0].pingApp[1] numOutOfOrderArrivals:last nan
attr interpolationmode none
attr title "ping out-of-order arrivals, last"
scalar BusLAN.host[0].pingApp[1] numLost:last nan
attr interpolationmode none
attr title "pings lost, last"
scalar BusLAN.host[0].pingApp[1] rtt:mean 0.00018815428119495
attr interpolationmode none
attr title "ping round-trip time, mean"
attr unit s
scalar BusLAN.host[0].pingApp[2] "Pings sent" 403
scalar BusLAN.host[0].pingApp[2] "ping loss rate (%)" 0
scalar BusLAN.host[0].pingApp[2] "ping out-of-order rate (%)" 0
scalar BusLAN.host[0].pingApp[2] pingRxSeq:count 307
attr interpolationmode none
attr title "ping rx seq, count"
scalar BusLAN.host[0].pingApp[2] pingTxSeq:count 307
attr interpolationmode none
attr title "ping tx seq, count"
scalar BusLAN.host[0].pingApp[2] numOutOfOrderArrivals:last nan
attr interpolationmode none
attr title "ping out-of-order arrivals, last"
scalar BusLAN.host[0].pingApp[2] numLost:last nan
attr interpolationmode none
attr title "pings lost, last"
scalar BusLAN.host[0].pingApp[2] rtt:mean 0.00019248135382014
attr interpolationmode none
attr title "ping round-trip time, mean"
attr unit s
scalar BusLAN.host[0].pingApp[3] "Pings sent" 387
scalar BusLAN.host[0].pingApp[3] "ping loss rate (%)" 0
scalar BusLAN.host[0].pingApp[3] "ping out-of-order rate (%)" 0
scalar BusLAN.host[0].pingApp[3] pingRxSeq:count 290
attr interpolationmode none
attr title "ping rx seq, count"
scalar BusLAN.host[0].pingApp[3] pingTxSeq:count 290
attr interpolationmode none
attr title "ping tx seq, count"
scalar BusLAN.host[0].pingApp[3] numOutOfOrderArrivals:last nan
attr interpolationmode none
attr title "ping out-of-order arrivals, last"
scalar BusLAN.host[0].pingApp[3] numLost:last nan
attr interpolationmode none
attr title "pings lost, last"
scalar BusLAN.host[0].pingApp[3] rtt:mean 0.00013735082443922
attr interpolationmode none
attr title "ping round-trip time, mean"
attr unit s
scalar BusLAN.host[0].pingApp[4] "Pings sent" 383
scalar BusLAN.host[0].pingApp[4] "ping loss rate (%)" 0
scalar BusLAN.host[0].pingApp[4] "ping out-of-order rate (%)" 0
scalar BusLAN.host[0].pingApp[4] pingRxSeq:count 289
attr interpolationmode none
attr title "ping rx seq, count"
scalar BusLAN.host[0].pingApp[4] pingTxSeq:count 289
attr interpolationmode none
attr title "ping tx seq, count"
scalar BusLAN.host[0].pingApp[4] numOutOfOrderArrivals:last nan
attr interpolationmode none
attr title "ping out-of-order arrivals, last"
scalar BusLAN.host[0].pingApp[4] numLost:last nan
attr interpolationmode none
attr title "pings lost, last"
scalar BusLAN.host[0].pingApp[4] rtt:mean 0.00026550676402239
attr interpolationmode none
attr title "ping round-trip time, mean"
attr unit s
scalar BusLAN.host[0].pingApp[5] "Pings sent" 404
scalar BusLAN.host[0].pingApp[5] "ping loss rate (%)" 0
scalar BusLAN.host[0].pingApp[5] "ping out-of-order rate (%)" 0
scalar BusLAN.host[0].pingApp[5] pingRxSeq:count 302
attr interpolationmode none
attr title "ping rx seq, count"
scalar BusLAN.host[0].pingApp[5] pingTxSeq:count 302
attr interpolationmode none
attr title "ping tx seq, count"
scalar BusLAN.host[0].pingApp[5] numOutOfOrderArrivals:last nan
attr interpolationmode none
attr title "ping out-of-order arrivals, last"
scalar BusLAN.host[0].pingApp[5] numLost:last nan
attr interpolationmode none
attr title "pings lost, last"
scalar BusLAN.host[0].pingApp[5] rtt:mean 0.00014886694927798
attr interpolationmode none
attr title "ping round-trip time, mean"
attr unit s
scalar BusLAN.host[0].pingApp[6] "Pings sent" 392
scalar BusLAN.host[0].pingApp[6] "ping loss rate (%)" 0
scalar BusLAN.host[0].pingApp[6] "ping out-of-order rate (%)" 0
scalar BusLAN.host[0].pingApp[6] pingRxSeq:count 290
attr interpolationmode none
attr title "ping rx seq, count"
scalar BusLAN.host[0].pingApp[6] pingTxSeq:count 290
attr interpolationmode none
attr title "ping tx seq, count"
scalar BusLAN.host[0].pingApp[6] numOutOfOrderArrivals:last nan
attr interpolationmode none
attr title "ping out-of-order arrivals, last"
scalar BusLAN.host[0].pingApp[6] numLost:last nan
attr interpolationmode none
attr title "pings lost, last"
scalar BusLAN.host[0].pingApp[6] rtt:mean 0.0001277689448037
attr interpolationmode none
attr title "ping round-trip time, mean"
attr unit s
scalar BusLAN.host[0].pingApp[7] "Pings sent" 392
scalar BusLAN.host[0].pingApp[7] "ping loss rate (%)" 0
scalar BusLAN.host[0].pingApp[7] "ping out-of-order rate (%)" 0
scalar BusLAN.host[0].pingApp[7] pingRxSeq:count 294
attr interpolationmode none
attr title "ping rx seq, count"
scalar BusLAN.host[0].pingApp[7] pingTxSeq:count 294
attr interpolationmode none
attr title "ping tx seq, count"
scalar BusLAN.host[0].pingApp[7] numOutOfOrderArrivals:last nan
attr interpolationmode none
attr title "ping out-of-order arrivals, last"
scalar BusLAN.host[0].pingApp[7] numLost:last nan
attr interpolationmode none
attr title "pings lost, last"
scalar BusLAN.host[0].pingApp[7] rtt:mean 0.00015997297885768
attr interpolationmode none
attr title "ping round-trip time, mean"
attr unit s
scalar BusLAN.host[0].pingApp[8] "Pings sent" 386
scalar BusLAN.host[0].pingApp[8] "ping loss rate (%)" 0
scalar BusLAN.host[0].pingApp[8] "ping out-of-order rate (%)" 0
scalar BusLAN.host[0].pingApp[8] pingRxSeq:count 297
attr interpolationmode none
attr title "ping rx seq, count"
scalar BusLAN.host[0].pingApp[8] pingTxSeq:count 297
attr interpolationmode none
attr title "ping tx seq, count"
scalar BusLAN.host[0].pingApp[8] numOutOfOrderArrivals:last nan
attr interpolationmode none
attr title "ping out-of-order arrivals, last"
scalar BusLAN.host[0].pingApp[8] numLost:last nan
attr interpolationmode none
attr title "pings lost, last"
scalar BusLAN.host[0].pingApp[8] rtt:mean 9.6730468605072e-005
attr interpolationmode none
attr title "ping round-trip time, mean"
attr unit s
scalar BusLAN.host[0].pingApp[9] "Pings sent" 381
scalar BusLAN.host[0].pingApp[9] "ping loss rate (%)" 0
scalar BusLAN.host[0].pingApp[9] "ping out-of-order rate (%)" 0
scalar BusLAN.host[0].pingApp[9] pingRxSeq:count 292
attr interpolationmode none
attr title "ping rx seq, count"
scalar BusLAN.host[0].pingApp[9] pingTxSeq:count 292
attr interpolationmode none
attr title "ping tx seq, count"
scalar BusLAN.host[0].pingApp[9] numOutOfOrderArrivals:last nan
attr interpolationmode none
attr title "ping out-of-order arrivals, last"
scalar BusLAN.host[0].pingApp[9] numLost:last nan
attr interpolationmode none
attr title "pings lost, last"
scalar BusLAN.host[0].pingApp[9] rtt:mean 0.00023217140934717
attr interpolationmode none
attr title "ping round-trip time, mean"
attr unit s
scalar BusLAN.host[0].pingApp[10] "Pings sent" 402
scalar BusLAN.host[0].pingApp[10] "ping loss rate (%)" 0
scalar BusLAN.host[0].pingApp[10] "ping out-of-order rate (%)" 0
scalar BusLAN.host[0].pingApp[10] pingRxSeq:count 309
attr interpolationmode none
attr title "ping rx seq, count"
scalar BusLAN.host[0].pingApp[10] pingTxSeq:count 309
attr interpolationmode none
attr title "ping tx seq, count"
scalar BusLAN.host[0].pingApp[10] numOutOfOrderArrivals:last nan
attr interpolationmode none
attr title "ping out-of-order arrivals, last"
scalar BusLAN.host[0].pingApp[10] numLost:last nan
attr interpolationmode none
attr title "pings lost, last"
scalar BusLAN.host[0].pingApp[10] rtt:mean 0.00015027136597887
attr interpolationmode none
attr title "ping round-trip time, mean"
attr unit s
scalar BusLAN.host[0].pingApp[11] "Pings sent" 386
scalar BusLAN.host[0].pingApp[11] "ping loss rate (%)" 0
scalar BusLAN.host[0].pingApp[11] "ping out-of-order rate (%)" 0
scalar BusLAN.host[0].pingApp[11] pingRxSeq:count 288
attr interpolationmode none
attr title "ping rx seq, count"
scalar BusLAN.host[0].pingApp[11] pingTxSeq:count 288
attr interpolationmode none
attr title "ping tx seq, count"
scalar BusLAN.host[0].pingApp[11] numOutOfOrderArrivals:last nan
attr interpolationmode none
attr title "ping out-of-order arrivals, last"
scalar BusLAN.host[0].pingApp[11] numLost:last nan
attr interpolationmode none
attr title "pings lost, last"
scalar BusLAN.host[0].pingApp[11] rtt:mean 0.00024759639805039
attr interpolationmode none
attr title "ping round-trip time, mean"
attr unit s
scalar BusLAN.host[0].pingApp[12] "Pings sent" 381
scalar BusLAN.host[0].pingApp[12] "ping loss rate (%)" 0
scalar BusLAN.host[0].pingApp[12] "ping out-of-order rate (%)" 0
scalar BusLAN.host[0].pingApp[12] pingRxSeq:count 286
attr interpolationmode none
attr title "ping rx seq, count"
scalar BusLAN.host[0].pingApp[12] pingTxSeq:count 286
attr interpolationmode none
attr title "ping tx seq, count"
scalar BusLAN.host[0].pingApp[12] numOutOfOrderArrivals:last nan
attr interpolationmode none
attr title "ping out-of-order arrivals, last"
scalar BusLAN.host[0].pingApp[12] numLost:last nan
attr interpolationmode none
attr title "pings lost, last"
scalar BusLAN.host[0].pingApp[12] rtt:mean 0.00030014753881081
attr interpolationmode none
attr title "ping round-trip time, mean"
attr unit s
scalar BusLAN.host[0].pingApp[13] "Pings sent" 376
scalar BusLAN.host[0].pingApp[13] "ping loss rate (%)" 0
scalar BusLAN.host[0].pingApp[13] "ping out-of-order rate (%)" 0
scalar BusLAN.host[0].pingApp[13] pingRxSeq:count 291
attr interpolationmode none
attr title "ping rx seq, count"
scalar BusLAN.host[0].pingApp[13] pingTxSeq:count 291
attr interpolationmode none
attr title "ping tx seq, count"
scalar BusLAN.host[0].pingApp[13] numOutOfOrderArrivals:last nan
attr interpolationmode none
attr title "ping out-of-order arrivals, last"
scalar BusLAN.host[0].pingApp[13] numLost:last nan
attr interpolationmode none
attr title "pings lost, last"
scalar BusLAN.host[0].pingApp[13] rtt:mean 0.00020437030624335
attr interpolationmode none
attr title "ping round-trip time, mean"
attr unit s
scalar BusLAN.host[0].pingApp[14] "Pings sent" 394
scalar BusLAN.host[0].pingApp[14] "ping loss rate (%)" 0
scalar BusLAN.host[0].pingApp[14] "ping out-of-order rate (%)" 0
scalar BusLAN.host[0].pingApp[14] pingRxSeq:count 300
attr interpolationmode none
attr title "ping rx seq, count"
scalar BusLAN.host[0].pingApp[14] pingTxSeq:count 300
attr interpolationmode none
attr title "ping tx seq, count"
scalar BusLAN.host[0].pingApp[14] numOutOfOrderArrivals:last nan
attr interpolationmode none
attr title "ping out-of-order arrivals, last"
scalar BusLAN.host[0].pingApp[14] numLost:last nan
attr interpolationmode none
attr title "pings lost, last"
scalar BusLAN.host[0].pingApp[14] rtt:mean 0.0002362592403963
attr interpolationmode none
attr title "ping round-trip time, mean"
attr unit s
scalar BusLAN.host[0].pingApp[15] "Pings sent" 405
scalar BusLAN.host[0].pingApp[15] "ping loss rate (%)" 0
scalar BusLAN.host[0].pingApp[15] "ping out-of-order rate (%)" 0
scalar BusLAN.host[0].pingApp[15] pingRxSeq:count 301
attr interpolationmode none
attr title "ping rx seq, count"
scalar BusLAN.host[0].pingApp[15] pingTxSeq:count 301
attr interpolationmode none
attr title "ping tx seq, count"
scalar BusLAN.host[0].pingApp[15] numOutOfOrderArrivals:last nan
attr interpolationmode none
attr title "ping out-of-order arrivals, last"
scalar BusLAN.host[0].pingApp[15] numLost:last nan
attr interpolationmode none
attr title "pings lost, last"
scalar BusLAN.host[0].pingApp[15] rtt:mean 0.00014952284801132
attr interpolationmode none
attr title "ping round-trip time, mean"
attr unit s
scalar BusLAN.host[1].networkLayer.arp sentReply:count 0
attr title "ARP replies sent, count"
scalar BusLAN.host[1].networkLayer.arp sentReq:count 0
attr title "ARP request sent, count"
scalar BusLAN.host[1].networkLayer.arp failedARPResolution:count 0
attr title "ARP failed resolutions, count"
scalar BusLAN.host[1].networkLayer.arp completedARPResolution:count 0
attr title "ARP completed resolutions, count"
scalar BusLAN.host[1].networkLayer.arp initiatedARPResolution:count 0
attr title "ARP initiated resolutions, count"
scalar BusLAN.host[1].lo0.lo droppedPkBitError:count 0
attr interpolationmode none
attr source dropPkBitError
attr title "packets dropped/bit error, count"
scalar BusLAN.host[1].lo0.lo droppedPkBitError:sum(packetBytes) 0
attr interpolationmode none
attr source dropPkBitError
attr title "packets dropped/bit error, sum(packetBytes)"
scalar BusLAN.host[1].lo0.lo rcvdPkFromHL:count 1394
attr interpolationmode none
attr source packetReceivedFromUpper
attr title "packets received from higher layer, count"
scalar BusLAN.host[1].lo0.lo rcvdPkFromHL:sum(packetBytes) 943452
attr interpolationmode none
attr source packetReceivedFromUpper
attr title "packets received from higher layer, sum(packetBytes)"
scalar BusLAN.host[1].lo0.lo passedUpPk:count 1394
attr interpolationmode none
attr source packetSentToUpper
attr title "packets passed to higher layer, count"
scalar BusLAN.host[1].lo0.lo passedUpPk:sum(packetBytes) 943452
attr interpolationmode none
attr source packetSentToUpper
attr title "packets passed to higher layer, sum(packetBytes)"
scalar BusLAN.host[1].eth[0].queue.pauseQueue queueLength:max nan
attr interpolationmode sample-hold
attr title "queue length, max"
scalar BusLAN.host[1].eth[0].queue.pauseQueue queueLength:timeavg nan
attr interpolationmode sample-hold
attr title "queue length, timeavg"
statistic BusLAN.host[1].eth[0].queue.pauseQueue queueingTime:histogram
field count 0
field mean nan
field stddev nan
field min nan
field max nan
field sum 0
field sqrsum 0
attr interpolationmode none
attr title "queueing time, histogram"
bin	-inf	0
bin	-0.5	0
bin	-0.46666666666667	0
bin	-0.43333333333333	0
bin	-0.4	0
bin	-0.36666666666667	0
bin	-0.33333333333333	0
bin	-0.3	0
bin	-0.26666666666667	0
bin	-0.23333333333333	0
bin	-0.2	0
bin	-0.16666666666667	0
bin	-0.13333333333333	0
bin	-0.1	0
bin	-0.066666666666667	0
bin	-0.033333333333333	0
bin	0	0
bin	0.033333333333333	0
bin	0.066666666666667	0
bin	0.1	0
bin	0.13333333333333	0
bin	0.16666666666667	0
bin	0.2	0
bin	0.23333333333333	0
bin	0.26666666666667	0
bin	0.3	0
bin	0.33333333333333	0
bin	0.36666666666667	0
bin	0.4	0
bin	0.43333333333333	0
bin	0.46666666666667	0
bin	0.5	0
scalar BusLAN.host[1].eth[0].queue.pauseQueue dropPk:count 0
attr interpolationmode none
attr source dropPkByQueue
attr title "dropped packets, count"
scalar BusLAN.host[1].eth[0].queue.pauseQueue dropPk:sum(packetBytes) 0
attr interpolationmode none
attr source dropPkByQueue
attr title "dropped packets, sum(packetBytes)"
scalar BusLAN.host[1].eth[0].queue.pauseQueue rcvdPk:count 0
attr interpolationmode none
attr title "received packets, count"
scalar BusLAN.host[1].eth[0].queue.pauseQueue rcvdPk:sum(packetBytes) 0
attr interpolationmode none
attr title "received packets, sum(packetBytes)"
scalar BusLAN.host[1].eth[0].queue.dataQueue queueLength:max 5
attr interpolationmode sample-hold
attr title "queue length, max"
scalar BusLAN.host[1].eth[0].queue.dataQueue queueLength:timeavg 0.028470146332701
attr interpolationmode sample-hold
attr title "queue length, timeavg"
statistic BusLAN.host[1].eth[0].queue.dataQueue queueingTime:histogram
field count 12818
field mean 3.3309231102359e-005
field stddev 4.5576037974497e-005
field min 0
field max 0.000294808717
field sum 0.42695772427003
field sqrsum 4.084478852708e-005
attr interpolationmode none
attr title "queueing time, histogram"
bin	-inf	0
bin	-8.464e-005	0
bin	-7.3354666666667e-005	0
bin	-6.2069333333333e-005	0
bin	-5.0784e-005	0
bin	-3.9498666666667e-005	0
bin	-2.8213333333333e-005	0
bin	-1.6928e-005	0
bin	-5.6426666666667e-006	7986
bin	5.6426666666667e-006	51
bin	1.6928e-005	43
bin	2.8213333333333e-005	46
bin	3.9498666666667e-005	34
bin	5.0784e-005	44
bin	6.2069333333333e-005	42
bin	7.3354666666667e-005	24
bin	8.464e-005	4116
bin	9.5925333333333e-005	49
bin	0.00010721066666667	41
bin	0.000118496	25
bin	0.00012978133333333	30
bin	0.00014106666666667	31
bin	0.000152352	20
bin	0.00016363733333333	185
bin	0.00017492266666667	7
bin	0.000186208	17
bin	0.00019749333333333	10
bin	0.00020877866666667	7
bin	0.000220064	2
bin	0.00023134933333333	0
bin	0.00024263466666667	3
bin	0.00025392	5
scalar BusLAN.host[1].eth[0].queue.dataQueue dropPk:count 0
attr interpolationmode none
attr source dropPkByQueue
attr title "dropped packets, count"
scalar BusLAN.host[1].eth[0].queue.dataQueue dropPk:sum(packetBytes) 0
attr interpolationmode none
attr source dropPkByQueue
attr title "dropped packets, sum(packetBytes)"
scalar BusLAN.host[1].eth[0].queue.dataQueue rcvdPk:count 12818
attr interpolationmode none
attr title "received packets, count"
scalar BusLAN.host[1].eth[0].queue.dataQueue rcvdPk:sum(packetBytes) 9019487
attr interpolationmode none
attr title "received packets, sum(packetBytes)"
scalar BusLAN.host[1].eth[0].mac "simulated time" 20
scalar BusLAN.host[1].eth[0].mac full-duplex 1
scalar BusLAN.host[1].eth[0].mac "frames/sec sent" 844.8
scalar BusLAN.host[1].eth[0].mac "frames/sec rcvd" 846.6
scalar BusLAN.host[1].eth[0].mac "bits/sec sent" 4751621.2
scalar BusLAN.host[1].eth[0].mac "bits/sec rcvd" 4752542.8
scalar BusLAN.host[1].eth[0].mac "rx channel idle (%)" 54.6327508
scalar BusLAN.host[1].eth[0].mac "rx channel utilization (%)" 45.3672492
scalar BusLAN.host[1].eth[0].mac rxPkFromHL:count 12818
attr interpolationmode none
attr source rxPkFromHL
attr title "packet bytes from higher layer, count"
scalar BusLAN.host[1].eth[0].mac rxPkFromHL:sum(packetBytes) 9019487
attr interpolationmode none
attr source rxPkFromHL
attr title "packet bytes from higher layer, sum(packetBytes)"
scalar BusLAN.host[1].eth[0].mac rxPausePkUnits:count 0
attr interpolationmode none
attr title "pause units received, count"
scalar BusLAN.host[1].eth[0].mac rxPausePkUnits:sum 0
attr interpolationmode none
attr title "pause units received, sum"
scalar BusLAN.host[1].eth[0].mac txPausePkUnits:count 0
attr interpolationmode none
attr title "pause units sent, count"
scalar BusLAN.host[1].eth[0].mac txPausePkUnits:sum 0
attr interpolationmode none
attr title "pause units sent, sum"
scalar BusLAN.host[1].eth[0].mac txPk:count 12819
attr interpolationmode none
attr source txPk
attr title "packets transmitted, count"
scalar BusLAN.host[1].eth[0].mac txPk:sum(packetBytes) 9020301
attr interpolationmode none
attr source txPk
attr title "packets transmitted, sum(packetBytes)"
scalar BusLAN.host[1].eth[0].mac droppedPkNotForUs:count 107032
attr interpolationmode none
attr source dropPkNotForUs
attr title "packets dropped/not for us, count"
scalar BusLAN.host[1].eth[0].mac droppedPkNotForUs:sum(packetBytes) 75922884
attr interpolationmode none
attr source dropPkNotForUs
attr title "packets dropped/not for us, sum(packetBytes)"
scalar BusLAN.host[1].eth[0].mac droppedPkBitError:count 0
attr interpolationmode none
attr source dropPkBitError
attr title "packets dropped/bit error, count"
scalar BusLAN.host[1].eth[0].mac droppedPkBitError:sum(packetBytes) 0
attr interpolationmode none
attr source dropPkBitError
attr title "packets dropped/bit error, sum(packetBytes)"
scalar BusLAN.host[1].eth[0].mac droppedPkIfaceDown:count 0
attr interpolationmode none
attr source dropPkIfaceDown
attr title "packets dropped/interface down, count"
scalar BusLAN.host[1].eth[0].mac droppedPkIfaceDown:sum(packetBytes) 0
attr interpolationmode none
attr source dropPkIfaceDown
attr title "packets dropped/interface down, sum(packetBytes)"
scalar BusLAN.host[1].eth[0].mac rxPkOk:count 12819
attr interpolationmode none
attr source rxPkOk
attr title "packets received OK, count"
scalar BusLAN.host[1].eth[0].mac rxPkOk:sum(packetBytes) 9020301
attr interpolationmode none
attr source rxPkOk
attr title "packets received OK, sum(packetBytes)"
scalar BusLAN.host[1].eth[0].mac passedUpPk:count 12819
attr interpolationmode none
attr source packetSentToUpper
attr title "packets passed to higher layer, count"
scalar BusLAN.host[1].eth[0].mac passedUpPk:sum(packetBytes) 9020301
attr interpolationmode none
attr source packetSentToUpper
attr title "packets passed to higher layer, sum(packetBytes)"
scalar BusLAN.host[1].eth[0].encap pauseSent:count 0
attr title "pause sent, count"
scalar BusLAN.host[1].eth[0].encap pauseSent:sum 0
attr title "pause sent, sum"
scalar BusLAN.host[1].eth[0].encap decapPk:count 12819
attr interpolationmode none
attr source decapPk
attr title "packets decapsulated, count"
scalar BusLAN.host[1].eth[0].encap decapPk:sum(packetBytes) 8788029
attr interpolationmode none
attr source decapPk
attr title "packets decapsulated, sum(packetBytes)"
scalar BusLAN.host[1].eth[0].encap encapPk:count 12818
attr interpolationmode none
attr source encapPk
attr title "packets encapsulated, count"
scalar BusLAN.host[1].eth[0].encap encapPk:sum(packetBytes) 8787233
attr interpolationmode none
attr source encapPk
attr title "packets encapsulated, sum(packetBytes)"
scalar BusLAN.host[1].pingApp[0] "Pings sent" 402
scalar BusLAN.host[1].pingApp[0] "ping loss rate (%)" 0
scalar BusLAN.host[1].pingApp[0] "ping out-of-order rate (%)" 0
scalar BusLAN.host[1].pingApp[0] pingRxSeq:count 312
attr interpolationmode none
attr title "ping rx seq, count"
scalar BusLAN.host[1].pingApp[0] pingTxSeq:count 312
attr interpolationmode none
attr title "ping tx seq, count"
scalar BusLAN.host[1].pingApp[0] numOutOfOrderArrivals:last nan
attr interpolationmode none
attr title "ping out-of-order arrivals, last"
scalar BusLAN.host[1].pingApp[0] numLost:last nan
attr interpolationmode none
attr title "pings lost, last"
scalar BusLAN.host[1].pingApp[0] rtt:mean 0.00022017092366316
attr interpolationmode none
attr title "ping round-trip time, mean"
attr unit s
scalar BusLAN.host[1].pingApp[1] "Pings sent" 380
scalar BusLAN.host[1].pingApp[1] "ping loss rate (%)" 0
scalar BusLAN.host[1].pingApp[1] "ping out-of-order rate (%)" 0
scalar BusLAN.host[1].pingApp[1] pingRxSeq:count 287
attr interpolationmode none
attr title "ping rx seq, count"
scalar BusLAN.host[1].pingApp[1] pingTxSeq:count 287
attr interpolationmode none
attr title "ping tx seq, count"
scalar BusLAN.host[1].pingApp[1] numOutOfOrderArrivals:last nan
attr interpolationmode none
attr title "ping out-of-order arrivals, last"
scalar BusLAN.host[1].pingApp[1] numLost:last nan
attr interpolationmode none
attr title "pings lost, last"
scalar BusLAN.host[1].pingApp[1] rtt:mean 0.00023335560168
attr interpolationmode none
attr title "ping round-trip time, mean"
attr unit s
scalar BusLAN.host[1].pingApp[2] "Pings sent" 382
scalar BusLAN.host[1].pingApp[2] "ping loss rate (%)" 0
scalar BusLAN.host[1].pingApp[2] "ping out-of-order rate (%)" 0
scalar BusLAN.host[1].pingApp[2] pingRxSeq:count 287
attr interpolationmode none
attr title "ping rx seq, count"
scalar BusLAN.host[1].pingApp[2] pingTxSeq:count 287
attr interpolationmode none
attr title "ping tx seq, count"
scalar BusLAN.host[1].pingApp[2] numOutOfOrderArrivals:last nan
attr interpolationmode none
attr title "ping out-of-order arrivals, last"
scalar BusLAN.host[1].pingApp[2] numLost:last nan
attr interpolationmode none
attr title "pings lost, last"
scalar BusLAN.host[1].pingApp[2] rtt:mean 4.5651893683019e-005
attr interpolationmode none
attr title "ping round-trip time, mean"
attr unit s
scalar BusLAN.host[1].pingApp[3] "Pings sent" 388
scalar BusLAN.host[1].pingApp[3] "ping loss rate (%)" 0
scalar BusLAN.host[1].pingApp[3] "ping out-of-order rate (%)" 0
scalar BusLAN.host[1].pingApp[3] pingRxSeq:count 293
attr interpolationmode none
attr title "ping rx seq, count"
scalar BusLAN.host[1].pingApp[3] pingTxSeq:count 293
attr interpolationmode none
attr title "ping tx seq, count"
scalar BusLAN.host[1].pingApp[3] numOutOfOrderArrivals:last nan
attr interpolationmode none
attr title "ping out-of-order arrivals, last"
scalar BusLAN.host[1].pingApp[3] numLost:last nan
attr interpolationmode none
attr title "pings lost, last"
scalar BusLAN.host[1].pingApp[3] rtt:mean 8.1106571760456e-005
attr interpolationmode none
attr title "ping round-trip time, mean"
attr unit s
scalar BusLAN.host[1].pingApp[4] "Pings sent" 369
scalar BusLAN.host[1].pingApp[4] "ping loss rate (%)" 0
scalar BusLAN.host[1].pingApp[4] "ping out-of-order rate (%)" 0
scalar BusLAN.host[1].pingApp[4] pingRxSeq:count 275
attr interpolationmode none
attr title "ping rx seq, count"
scalar BusLAN.host[1].pingApp[4] pingTxSeq:count 274
attr interpolationmode none
attr title "ping tx seq, count"
scalar BusLAN.host[1].pingApp[4] numOutOfOrderArrivals:last nan
attr interpolationmode none
attr title "ping out-of-order arrivals, last"
scalar BusLAN.host[1].pingApp[4] numLost:last nan
attr interpolationmode none
attr title "pings lost, last"
scalar BusLAN.host[1].pingApp[4] rtt:mean 0.0001390040455551
attr interpolationmode none
attr title "ping round-trip time, mean"
attr unit s
scalar BusLAN.host[1].pingApp[5] "Pings sent" 386
scalar BusLAN.host[1].pingApp[5] "ping loss rate (%)" 0
scalar BusLAN.host[1].pingApp[5] "ping out-of-order rate (%)" 0
scalar BusLAN.host[1].pingApp[5] pingRxSeq:count 292
attr interpolationmode none
attr title "ping rx seq, count"
scalar BusLAN.host[1].pingApp[5] pingTxSeq:count 292
attr interpolationmode none
attr title "ping tx seq, count"
scalar BusLAN.host[1].pingApp[5] numOutOfOrderArrivals:last nan
attr interpolationmode none
attr title "ping out-of-order arrivals, last"
scalar BusLAN.host[1].pingApp[5] numLost:last nan
attr interpolationmode none
attr title "pings lost, last"
scalar BusLAN.host[1].pingApp[5] rtt:mean 0.00021340285812791
attr interpolationmode none
attr title "ping round-trip time, mean"
attr unit s
scalar BusLAN.host[1].pingApp[6] "Pings sent" 385
scalar BusLAN.host[1].pingApp[6] "ping loss rate (%)" 0
scalar BusLAN.host[1].pingApp[6] "ping out-of-order rate (%)" 0
scalar BusLAN.host[1].pingApp[6] pingRxSeq:count 301
attr interpolationmode none
attr title "ping rx seq, count"
scalar BusLAN.host[1].pingApp[6] pingTxSeq:count 301
attr interpolationmode none
attr title "ping tx seq, count"
scalar BusLAN.host[1].pingApp[6] numOutOfOrderArrivals:last nan
attr interpolationmode none
attr title "ping out-of-order arrivals, last"
scalar BusLAN.host[1].pingApp[6] numLost:last nan
attr interpolationmode none
attr title "pings lost, last"
scalar BusLAN.host[1].pingApp[6] rtt:mean 9.1053187e-005
attr interpolationmode none
attr title "ping round-trip time, mean"
attr unit s
scalar BusLAN.host[1].pingApp[7] "Pings sent" 371
scalar BusLAN.host[1].pingApp[7] "ping loss rate (%)" 0
scalar BusLAN.host[1].pingApp[7] "ping out-of-order rate (%)" 0
scalar BusLAN.host[1].pingApp[7] pingRxSeq:count 277
attr interpolationmode none
attr title "ping rx seq, count"
scalar BusLAN.host[1].pingApp[7] pingTxSeq:count 277
attr interpolationmode none
attr title "ping tx seq, count"
scalar BusLAN.host[1].pingApp[7] numOutOfOrderArrivals:last nan
attr interpolationmode none
attr title "ping out-of-order arrivals, last"
scalar BusLAN.host[1].pingApp[7] numLost:last nan
attr interpolationmode none
attr title "pings lost, last"
scalar BusLAN.host[1].pingApp[7] rtt:mean 0.00024380021407884
attr interpolationmode none
attr title "ping round-trip time, mean"
attr unit s
scalar BusLAN.host[1].pingApp[8] "Pings sent" 380
scalar BusLAN.host[1].pingApp[8] "ping loss rate (%)" 0
scalar BusLAN.host[1].pingApp[8] "ping out-of-order rate (%)" 0
scalar BusLAN.host[1].pingApp[8] pingRxSeq:count 290
attr interpolationmode none
attr title "ping rx seq, count"
scalar BusLAN.host[1].pingApp[8] pingTxSeq:count 290
attr interpolationmode none
attr title "ping tx seq, count"
scalar BusLAN.host[1].pingApp[8] numOutOfOrderArrivals:last nan
attr interpolationmode none
attr title "ping out-of-order arrivals, last"
scalar BusLAN.host[1].pingApp[8] numLost:last nan
attr interpolationmode none
attr title "pings lost, last"
scalar BusLAN.host[1].pingApp[8] rtt:mean 0.00013655588696241
attr interpolationmode none
attr title "ping round-trip time, mean"
attr unit s
scalar BusLAN.host[1].pingApp[9] "Pings sent" 394
scalar BusLAN.host[1].pingApp[9] "ping loss rate (%)" 0
scalar BusLAN.host[1].pingApp[9] "ping out-of-order rate (%)" 0
scalar BusLAN.host[1].pingApp[9] pingRxSeq:count 292
attr interpolationmode none
attr title "ping rx seq, count"
scalar BusLAN.host[1].pingApp[9] pingTxSeq:count 292
attr interpolationmode none
attr title "ping tx seq, count"
scalar BusLAN.host[1].pingApp[9] numOutOfOrderArrivals:last nan
attr interpolationmode none
attr title "ping out-of-order arrivals, last"
scalar BusLAN.host[1].pingApp[9] numLost:last nan
attr interpolationmode none
attr title "pings lost, last"
scalar BusLAN.host[1].pingApp[9] rtt:mean 0.00029480959361654
attr interpolationmode none
attr title "ping round-trip time, mean"
attr unit s
scalar BusLAN.host[1].pingApp[10] "Pings sent" 394
scalar BusLAN.host[1].pingApp[10] "ping loss rate (%)" 0
scalar BusLAN.host[1].pingApp[10] "ping out-of-order rate (%)" 0
scalar BusLAN.host[1].pingApp[10] pingRxSeq:count 296
attr interpolationmode none
attr title "ping rx seq, count"
scalar BusLAN.host[1].pingApp[10] pingTxSeq:count 296
attr interpolationmode none
attr title "ping tx seq, count"
scalar BusLAN.host[1].pingApp[10] numOutOfOrderArrivals:last nan
attr interpolationmode none
attr title "ping out-of-order arrivals, last"
scalar BusLAN.host[1].pingApp[10] numLost:last nan
attr interpolationmode none
attr title "pings lost, last"
scalar BusLAN.host[1].pingApp[10] rtt:mean 0.00015890610451136
attr interpolationmode none
attr title "ping round-trip time, mean"
attr unit s
scalar BusLAN.host[1].pingApp[11] "Pings sent" 382
scalar BusLAN.host[1].pingApp[11] "ping loss rate (%)" 0
scalar BusLAN.host[1].pingApp[11] "ping out-of-order rate (%)" 0
scalar BusLAN.host[1].pingApp[11] pingRxSeq:count 289
attr interpolationmode none
attr title "ping rx seq, count"
scalar BusLAN.host[1].pingApp[11] pingTxSeq:count 289
attr interpolationmode none
attr title "ping tx seq, count"
scalar BusLAN.host[1].pingApp[11] numOutOfOrderArrivals:last nan
attr interpolationmode none
attr title "ping out-of-order arrivals, last"
scalar BusLAN.host[1].pingApp[11] numLost:last nan
attr interpolationmode none
attr title "pings lost, last"
scalar BusLAN.host[1].pingApp[11] rtt:mean 0.00015260266727778
attr interpolationmode none
attr title "ping round-trip time, mean"
attr unit s
scalar BusLAN.host[1].pingApp[12] "Pings sent" 384
scalar BusLAN.host[1].pingApp[12] "ping loss rate (%)" 0
scalar BusLAN.host[1].pingApp[12] "ping out-of-order rate (%)" 0
scalar BusLAN.host[1].pingApp[12] pingRxSeq:count 291
attr interpolationmode none
attr title "ping rx seq, count"
scalar BusLAN.host[1].pingApp[12] pingTxSeq:count 291
attr interpolationmode none
attr title "ping tx seq, count"
scalar BusLAN.host[1].pingApp[12] numOutOfOrderArrivals:last nan
attr interpolationmode none
attr title "ping out-of-order arrivals, last"
scalar BusLAN.host[1].pingApp[12] numLost:last nan
attr interpolationmode none
attr title "pings lost, last"
scalar BusLAN.host[1].pingApp[12] rtt:mean 0.00023438905554545
attr interpolationmode none
attr title "ping round-trip time, mean"
attr unit s
scalar BusLAN.host[1].pingApp[13] "Pings sent" 380
scalar BusLAN.host[1].pingApp[13] "ping loss rate (%)" 0
scalar BusLAN.host[1].pingApp[13] "ping out-of-order rate (%)" 0
scalar BusLAN.host[1].pingApp[13] pingRxSeq:count 286
attr interpolationmode none
attr title "ping rx seq, count"
scalar BusLAN.host[1].pingApp[13] pingTxSeq:count 286
attr interpolationmode none
attr title "ping tx seq, count"
scalar BusLAN.host[1].pingApp[13] numOutOfOrderArrivals:last nan
attr interpolationmode none
attr title "ping out-of-order arrivals, last"
scalar BusLAN.host[1].pingApp[13] numLost:last nan
attr interpolationmode none
attr title "pings lost, last"
scalar BusLAN.host[1].pingApp[13] rtt:mean 0.00020348188967451
attr interpolationmode none
attr title "ping round-trip time, mean"
attr unit s
scalar BusLAN.host[1].pingApp[14] "Pings sent" 390
scalar BusLAN.host[1].pingApp[14] "ping loss rate (%)" 0
scalar BusLAN.host[1].pingApp[14] "ping out-of-order rate (%)" 0
scalar BusLAN.host[1].pingApp[14] pingRxSeq:count 297
attr interpolationmode none
attr title "ping rx seq, count"
scalar BusLAN.host[1].pingApp[14] pingTxSeq:count 297
attr interpolationmode none
attr title "ping tx seq, count"
scalar BusLAN.host[1].pingApp[14] numOutOfOrderArrivals:last nan
attr interpolationmode none
attr title "ping out-of-order arrivals, last"
scalar BusLAN.host[1].pingApp[14] numLost:last nan
attr interpolationmode none
attr title "pings lost, last"
scalar BusLAN.host[1].pingApp[14] rtt:mean 0.00026965410625556
attr interpolationmode none
attr title "ping round-trip time, mean"
attr unit s
scalar BusLAN.host[1].pingApp[15] "Pings sent" 383
scalar BusLAN.host[1].pingApp[15] "ping loss rate (%)" 0
scalar BusLAN.host[1].pingApp[15] "ping out-of-order rate (%)" 0
scalar BusLAN.host[1].pingApp[15] pingRxSeq:count 289
attr interpolationmode none
attr title "ping rx seq, count"
scalar BusLAN.host[1].pingApp[15] pingTxSeq:count 289
attr interpolationmode none
attr title "ping tx seq, count"
scalar BusLAN.host[1].pingApp[15] numOutOfOrderArrivals:last nan
attr interpolationmode none
attr title "ping out-of-order arrivals, last"
scalar BusLAN.host[1].pingApp[15] numLost:last nan
attr interpolationmode none
attr title "pings lost, last"
scalar BusLAN.host[1].pingApp[15] rtt:mean 9.6448249326923e-005
attr interpolationmode none
attr title "ping round-trip time, mean"
attr unit s
scalar BusLAN.host[2].networkLayer.arp sentReply:count 0
attr title "ARP replies sent, count"
scalar BusLAN.host[2].networkLayer.arp sentReq:count 0
attr title "ARP request sent, count"
scalar BusLAN.host[2].networkLayer.arp failedARPResolution:count 0
attr title "ARP failed resolutions, count"
scalar BusLAN.host[2].networkLayer.arp completedARPResolution:count 0
attr title "ARP completed resolutions, count"
scalar BusLAN.host[2].networkLayer.arp initiatedARPResolution:count 0
attr title "ARP initiated resolutions, count"
scalar BusLAN.host[2].lo0.lo droppedPkBitError:count 0
attr interpolationmode none
attr source dropPkBitError
attr title "packets dropped/bit error, count"
scalar BusLAN.host[2].lo0.lo droppedPkBitError:sum(packetBytes) 0
attr interpolationmode none
attr source dropPkBitError
attr title "packets dropped/bit error, sum(packetBytes)"
scalar BusLAN.host[2].lo0.lo rcvdPkFromHL:count 1282
attr interpolationmode none
attr source packetReceivedFromUpper
attr title "packets received from higher layer, count"
scalar BusLAN.host[2].lo0.lo rcvdPkFromHL:sum(packetBytes) 799298
attr interpolationmode none
attr source packetReceivedFromUpper
attr title "packets received from higher layer, sum(packetBytes)"
scalar BusLAN.host[2].lo0.lo passedUpPk:count 1282
attr interpolationmode none
attr source packetSentToUpper
attr title "packets passed to higher layer, count"
scalar BusLAN.host[2].lo0.lo passedUpPk:sum(packetBytes) 799298
attr interpolationmode none
attr source packetSentToUpper
attr title "packets passed to higher layer, sum(packetBytes)"
scalar BusLAN.host[2].eth[0].queue.pauseQueue queueLength:max nan
attr interpolationmode sample-hold
attr title "queue length, max"
scalar BusLAN.host[2].eth[0].queue.pauseQueue queueLength:timeavg nan
attr interpolationmode sample-hold
attr title "queue length, timeavg"
statistic BusLAN.host[2].eth[0].queue.pauseQueue queueingTime:histogram
field count 0
field mean nan
field stddev nan
field min nan
field max nan
field sum 0
field sqrsum 0
attr interpolationmode none
attr title "queueing time, histogram"
bin	-inf	0
bin	-0.5	0
bin	-0.46666666666667	0
bin	-0.43333333333333	0
bin	-0.4	0
bin	-0.36666666666667	0
bin	-0.33333333333333	0
bin	-0.3	0
bin	-0.26666666666667	0
bin	-0.23333333333333	0
bin	-0.2	0
bin	-0.16666666666667	0
bin	-0.13333333333333	0
bin	-0.1	0
bin	-0.066666666666667	0
bin	-0.033333333333333	0
bin	0	0
bin	0.033333333333333	0
bin	0.066666666666667	0
bin	0.1	0
bin	0.13333333333333	0
bin	0.16666666666667	0
bin	0.2	0
bin	0.23333333333333	0
bin	0.26666666666667	0
bin	0.3	0
bin	0.33333333333333	0
bin	0.36666666666667	0
bin	0.4	0
bin	0.43333333333333	0
bin	0.46666666666667	0
bin	0.5	0
scalar BusLAN.host[2].eth[0].queue.pauseQueue dropPk:count 0
attr interpolationmode none
attr source dropPkByQueue
attr title "dropped packets, count"
scalar BusLAN.host[2].eth[0].queue.pauseQueue dropPk:sum(packetBytes) 0
attr interpolationmode none
attr source dropPkByQueue
attr title "dropped packets, sum(packetBytes)"
scalar BusLAN.host[2].eth[0].queue.pauseQueue rcvdPk:count 0
attr interpolationmode none
attr title "received packets, count"
scalar BusLAN.host[2].eth[0].queue.pauseQueue rcvdPk:sum(packetBytes) 0
attr interpolationmode none
attr title "received packets, sum(packetBytes)"
scalar BusLAN.host[2].eth[0].queue.dataQueue queueLength:max 4
attr interpolationmode sample-hold
attr title "queue length, max"
scalar BusLAN.host[2].eth[0].queue.dataQueue queueLength:timeavg 0.027293912808221
attr interpolationmode sample-hold
attr title "queue length, timeavg"
statistic BusLAN.host[2].eth[0].queue.dataQueue queueingTime:histogram
field count 12599
field mean 3.2493221788716e-005
field stddev 4.5485480975983e-005
field min 0
field max 0.000261915726
field sum 0.40938210131603
field sqrsum 3.9366510699602e-005
attr interpolationmode none
attr title "queueing time, histogram"
bin	-inf	0
bin	-0.0001020853325	0
bin	-8.8473954833333e-005	0
bin	-7.4862577166667e-005	0
bin	-6.12511995e-005	0
bin	-4.7639821833333e-005	0
bin	-3.4028444166667e-005	0
bin	-2.04170665e-005	0
bin	-6.8056888333333e-006	7974
bin	6.8056888333333e-006	61
bin	2.04170665e-005	59
bin	3.4028444166667e-005	51
bin	4.7639821833333e-005	59
bin	6.12511995e-005	33
bin	7.4862577166667e-005	3893
bin	8.8473954833333e-005	71
bin	0.0001020853325	44
bin	0.00011569671016667	31
bin	0.00012930808783333	27
bin	0.0001429194655	21
bin	0.00015653084316667	224
bin	0.00017014222083333	19
bin	0.0001837535985	13
bin	0.00019736497616667	7
bin	0.00021097635383333	2
bin	0.0002245877315	2
bin	0.00023819910916667	3
bin	0.00025181048683333	5
bin	0.0002654218645	0
bin	0.00027903324216667	0
bin	0.00029264461983333	0
bin	0.0003062559975	0
scalar BusLAN.host[2].eth[0].queue.dataQueue dropPk:count 0
attr interpolationmode none
attr source dropPkByQueue
attr title "dropped packets, count"
scalar BusLAN.host[2].eth[0].queue.dataQueue dropPk:sum(packetBytes) 0
attr interpolationmode none
attr source dropPkByQueue
attr title "dropped packets, sum(packetBytes)"
scalar BusLAN.host[2].eth[0].queue.dataQueue rcvdPk:count 12599
attr interpolationmode none
attr title "received packets, count"
scalar BusLAN.host[2].eth[0].queue.dataQueue rcvdPk:sum(packetBytes) 8608652
attr interpolationmode none
attr title "received packets, sum(packetBytes)"
scalar BusLAN.host[2].eth[0].mac "simulated time" 20
scalar BusLAN.host[2].eth[0].mac full-duplex 1
scalar BusLAN.host[2].eth[0].mac "frames/sec sent" 833.45
scalar BusLAN.host[2].eth[0].mac "frames/sec rcvd" 835.25
scalar BusLAN.host[2].eth[0].mac "bits/sec sent" 4551284.8
scalar BusLAN.host[2].eth[0].mac "bits/sec rcvd" 4552206.4
scalar BusLAN.host[2].eth[0].mac "rx channel idle (%)" 54.431688
scalar BusLAN.host[2].eth[0].mac "rx channel utilization (%)" 45.568312
scalar BusLAN.host[2].eth[0].mac rxPkFromHL:count 12599
attr interpolationmode none
attr source rxPkFromHL
attr title "packet bytes from higher layer, count"
scalar BusLAN.host[2].eth[0].mac rxPkFromHL:sum(packetBytes) 8608652
attr interpolationmode none
attr source rxPkFromHL
attr title "packet bytes from higher layer, sum(packetBytes)"
scalar BusLAN.host[2].eth[0].mac rxPausePkUnits:count 0
attr interpolationmode none
attr title "pause units received, count"
scalar BusLAN.host[2].eth[0].mac rxPausePkUnits:sum 0
attr interpolationmode none
attr title "pause units received, sum"
scalar BusLAN.host[2].eth[0].mac txPausePkUnits:count 0
attr interpolationmode none
attr title "pause units sent, count"
scalar BusLAN.host[2].eth[0].mac txPausePkUnits:sum 0
attr interpolationmode none
attr title "pause units sent, sum"
scalar BusLAN.host[2].eth[0].mac txPk:count 12599
attr interpolationmode none
attr source txPk
attr title "packets transmitted, count"
scalar BusLAN.host[2].eth[0].mac txPk:sum(packetBytes) 8608652
attr interpolationmode none
attr source txPk
attr title "packets transmitted, sum(packetBytes)"
scalar BusLAN.host[2].eth[0].mac droppedPkNotForUs:count 107472
attr interpolationmode none
attr source dropPkNotForUs
attr title "packets dropped/not for us, count"
scalar BusLAN.host[2].eth[0].mac droppedPkNotForUs:sum(packetBytes) 76746182
attr interpolationmode none
attr source dropPkNotForUs
attr title "packets dropped/not for us, sum(packetBytes)"
scalar BusLAN.host[2].eth[0].mac droppedPkBitError:count 0
attr interpolationmode none
attr source dropPkBitError
attr title "packets dropped/bit error, count"
scalar BusLAN.host[2].eth[0].mac droppedPkBitError:sum(packetBytes) 0
attr interpolationmode none
attr source dropPkBitError
attr title "packets dropped/bit error, sum(packetBytes)"
scalar BusLAN.host[2].eth[0].mac droppedPkIfaceDown:count 0
attr interpolationmode none
attr source dropPkIfaceDown
attr title "packets dropped/interface down, count"
scalar BusLAN.host[2].eth[0].mac droppedPkIfaceDown:sum(packetBytes) 0
attr interpolationmode none
attr source dropPkIfaceDown
attr title "packets dropped/interface down, sum(packetBytes)"
scalar BusLAN.host[2].eth[0].mac rxPkOk:count 12599
attr interpolationmode none
attr source rxPkOk
attr title "packets received OK, count"
scalar BusLAN.host[2].eth[0].mac rxPkOk:sum(packetBytes) 8608652
attr interpolationmode none
attr source rxPkOk
attr title "packets received OK, sum(packetBytes)"
scalar BusLAN.host[2].eth[0].mac passedUpPk:count 12599
attr interpolationmode none
attr source packetSentToUpper
attr title "packets passed to higher layer, count"
scalar BusLAN.host[2].eth[0].mac passedUpPk:sum(packetBytes) 8608652
attr interpolationmode none
attr source packetSentToUpper
attr title "packets passed to higher layer, sum(packetBytes)"
scalar BusLAN.host[2].eth[0].encap pauseSent:count 0
attr title "pause sent, count"
scalar BusLAN.host[2].eth[0].encap pauseSent:sum 0
attr title "pause sent, sum"
scalar BusLAN.host[2].eth[0].encap decapPk:count 12599
attr interpolationmode none
attr source decapPk
attr title "packets decapsulated, count"
scalar BusLAN.host[2].eth[0].encap decapPk:sum(packetBytes) 8380567
attr interpolationmode none
attr source decapPk
attr title "packets decapsulated, sum(packetBytes)"
scalar BusLAN.host[2].eth[0].encap encapPk:count 12599
attr interpolationmode none
attr source encapPk
attr title "packets encapsulated, count"
scalar BusLAN.host[2].eth[0].encap encapPk:sum(packetBytes) 8380567
attr interpolationmode none
attr source encapPk
attr title "packets encapsulated, sum(packetBytes)"
scalar BusLAN.host[2].pingApp[0] "Pings sent" 383
scalar BusLAN.host[2].pingApp[0] "ping loss rate (%)" 0
scalar BusLAN.host[2].pingApp[0] "ping out-of-order rate (%)" 0
scalar BusLAN.host[2].pingApp[0] pingRxSeq:count 300
attr interpolationmode none
attr title "ping rx seq, count"
scalar BusLAN.host[2].pingApp[0] pingTxSeq:count 300
attr interpolationmode none
attr title "ping tx seq, count"
scalar BusLAN.host[2].pingApp[0] numOutOfOrderArrivals:last nan
attr interpolationmode none
attr title "ping out-of-order arrivals, last"
scalar BusLAN.host[2].pingApp[0] numLost:last nan
attr interpolationmode none
attr title "pings lost, last"
scalar BusLAN.host[2].pingApp[0] rtt:mean 0.00028582753412774
attr interpolationmode none
attr title "ping round-trip time, mean"
attr unit s
scalar BusLAN.host[2].pingApp[1] "Pings sent" 377
scalar BusLAN.host[2].pingApp[1] "ping loss rate (%)" 0
scalar BusLAN.host[2].pingApp[1] "ping out-of-order rate (%)" 0
scalar BusLAN.host[2].pingApp[1] pingRxSeq:count 284
attr interpolationmode none
attr title "ping rx seq, count"
scalar BusLAN.host[2].pingApp[1] pingTxSeq:count 284
attr interpolationmode none
attr title "ping tx seq, count"
scalar BusLAN.host[2].pingApp[1] numOutOfOrderArrivals:last nan
attr interpolationmode none
attr title "ping out-of-order arrivals, last"
scalar BusLAN.host[2].pingApp[1] numLost:last nan
attr interpolationmode none
attr title "pings lost, last"
scalar BusLAN.host[2].pingApp[1] rtt:mean 0.0002175108866139
attr interpolationmode none
attr title "ping round-trip time, mean"
attr unit s
scalar BusLAN.host[2].pingApp[2] "Pings sent" 379
scalar BusLAN.host[2].pingApp[2] "ping loss rate (%)" 0
scalar BusLAN.host[2].pingApp[2] "ping out-of-order rate (%)" 0
scalar BusLAN.host[2].pingApp[2] pingRxSeq:count 287
attr interpolationmode none
attr title "ping rx seq, count"
scalar BusLAN.host[2].pingApp[2] pingTxSeq:count 287
attr interpolationmode none
attr title "ping tx seq, count"
scalar BusLAN.host[2].pingApp[2] numOutOfOrderArrivals:last nan
attr interpolationmode none
attr title "ping out-of-order arrivals, last"
scalar BusLAN.host[2].pingApp[2] numLost:last nan
attr interpolationmode none
attr title "pings lost, last"
scalar BusLAN.host[2].pingApp[2] rtt:mean 0.00026906721416016
attr interpolationmode none
attr title "ping round-trip time, mean"
attr unit s
scalar BusLAN.host[2].pingApp[3] "Pings sent" 384
scalar BusLAN.host[2].pingApp[3] "ping loss rate (%)" 0
scalar BusLAN.host[2].pingApp[3] "ping out-of-order rate (%)" 0
scalar BusLAN.host[2].pingApp[3] pingRxSeq:count 287
attr interpolationmode none
attr title "ping rx seq, count"
scalar BusLAN.host[2].pingApp[3] pingTxSeq:count 287
attr interpolationmode none
attr title "ping tx seq, count"
scalar BusLAN.host[2].pingApp[3] numOutOfOrderArrivals:last nan
attr interpolationmode none
attr title "ping out-of-order arrivals, last"
scalar BusLAN.host[2].pingApp[3] numLost:last nan
attr interpolationmode none
attr title "pings lost, last"
scalar BusLAN.host[2].pingApp[3] rtt:mean 0.00022433493319763
attr interpolationmode none
attr title "ping round-trip time, mean"
attr unit s
scalar BusLAN.host[2].pingApp[4] "Pings sent" 379
scalar BusLAN.host[2].pingApp[4] "ping loss rate (%)" 0
scalar BusLAN.host[2].pingApp[4] "ping out-of-order rate (%)" 0
scalar BusLAN.host[2].pingApp[4] pingRxSeq:count 285
attr interpolationmode none
attr title "ping rx seq, count"
scalar BusLAN.host[2].pingApp[4] pingTxSeq:count 285
attr interpolationmode none
attr title "ping tx seq, count"
scalar BusLAN.host[2].pingApp[4] numOutOfOrderArrivals:last nan
attr interpolationmode none
attr title "ping out-of-order arrivals, last"
scalar BusLAN.host[2].pingApp[4] numLost:last nan
attr interpolationmode none
attr title "pings lost, last"
scalar BusLAN.host[2].pingApp[4] rtt:mean 9.917230630038e-005
attr interpolationmode none
attr title "ping round-trip time, mean"
attr unit s
scalar BusLAN.host[2].pingApp[5] "Pings sent" 370
scalar BusLAN.host[2].pingApp[5] "ping loss rate (%)" 0
scalar BusLAN.host[2].pingApp[5] "ping out-of-order rate (%)" 0
scalar BusLAN.host[2].pingApp[5] pingRxSeq:count 286
attr interpolationmode none
attr title "ping rx seq, count"
scalar BusLAN.host[2].pingApp[5] pingTxSeq:count 286
attr interpolationmode none
attr title "ping tx seq, count"
scalar BusLAN.host[2].pingApp[5] numOutOfOrderArrivals:last nan
attr interpolationmode none
attr title "ping out-of-order arrivals, last"
scalar BusLAN.host[2].pingApp[5] numLost:last nan
attr interpolationmode none
attr title "pings lost, last"
scalar BusLAN.host[2].pingApp[5] rtt:mean 5.7069709662698e-005
attr interpolationmode none
attr title "ping round-trip time, mean"
attr unit s
scalar BusLAN.host[2].pingApp[6] "Pings sent" 411
scalar BusLAN.host[2].pingApp[6] "ping loss rate (%)" 0
scalar BusLAN.host[2].pingApp[6] "ping out-of-order rate (%)" 0
scalar BusLAN.host[2].pingApp[6] pingRxSeq:count 307
attr interpolationmode none
attr title "ping rx seq, count"
scalar BusLAN.host[2].pingApp[6] pingTxSeq:count 307
attr interpolationmode none
attr title "ping tx seq, count"
scalar BusLAN.host[2].pingApp[6] numOutOfOrderArrivals:last nan
attr interpolationmode none
attr title "ping out-of-order arrivals, last"
scalar BusLAN.host[2].pingApp[6] numLost:last nan
attr interpolationmode none
attr title "pings lost, last"
scalar BusLAN.host[2].pingApp[6] rtt:mean 8.9599539077193e-005
attr interpolationmode none
attr title "ping round-trip time, mean"
attr unit s
scalar BusLAN.host[2].pingApp[7] "Pings sent" 391
scalar BusLAN.host[2].pingApp[7] "ping loss rate (%)" 0
scalar BusLAN.host[2].pingApp[7] "ping out-of-order rate (%)" 0
scalar BusLAN.host[2].pingApp[7] pingRxSeq:count 296
attr interpolationmode none
attr title "ping rx seq, count"
scalar BusLAN.host[2].pingApp[7] pingTxSeq:count 296
attr interpolationmode none
attr title "ping tx seq, count"
scalar BusLAN.host[2].pingApp[7] numOutOfOrderArrivals:last nan
attr interpolationmode none
attr title "ping out-of-order arrivals, last"
scalar BusLAN.host[2].pingApp[7] numLost:last nan
attr interpolationmode none
attr title "pings lost, last"
scalar BusLAN.host[2].pingApp[7] rtt:mean 0.00011626485096169
attr interpolationmode none
attr title "ping round-trip time, mean"
attr unit s
scalar BusLAN.host[2].pingApp[8] "Pings sent" 382
scalar BusLAN.host[2].pingApp[8] "ping loss rate (%)" 0
scalar BusLAN.host[2].pingApp[8] "ping out-of-order rate (%)" 0
scalar BusLAN.host[2].pingApp[8] pingRxSeq:count 289
attr interpolationmode none
attr title "ping rx seq, count"
scalar BusLAN.host[2].pingApp[8] pingTxSeq:count 289
attr interpolationmode none
attr title "ping tx seq, count"
scalar BusLAN.host[2].pingApp[8] numOutOfOrderArrivals:last nan
attr interpolationmode none
attr title "ping out-of-order arrivals, last"
scalar BusLAN.host[2].pingApp[8] numLost:last nan
attr interpolationmode none
attr title "pings lost, last"
scalar BusLAN.host[2].pingApp[8] rtt:mean 9.755359058427e-005
attr interpolationmode none
attr title "ping round-trip time, mean"
attr unit s
scalar BusLAN.host[2].pingApp[9] "Pings sent" 387
scalar BusLAN.host[2].pingApp[9] "ping loss rate (%)" 0
scalar BusLAN.host[2].pingApp[9] "ping out-of-order rate (%)" 0
scalar BusLAN.host[2].pingApp[9] pingRxSeq:count 288
attr interpolationmode none
attr title "ping rx seq, count"
scalar BusLAN.host[2].pingApp[9] pingTxSeq:count 288
attr interpolationmode none
attr title "ping tx seq, count"
scalar BusLAN.host[2].pingApp[9] numOutOfOrderArrivals:last nan
attr interpolationmode none
attr title "ping out-of-order arrivals, last"
scalar BusLAN.host[2].pingApp[9] numLost:last nan
attr interpolationmode none
attr title "pings lost, last"
scalar BusLAN.host[2].pingApp[9] rtt:mean 0.00013905054162069
attr interpolationmode none
attr title "ping round-trip time, mean"
attr unit s
scalar BusLAN.host[2].pingApp[10] "Pings sent" 370
scalar BusLAN.host[2].pingApp[10] "ping loss rate (%)" 0
scalar BusLAN.host[2].pingApp[10] "ping out-of-order rate (%)" 0
scalar BusLAN.host[2].pingApp[10] pingRxSeq:count 279
attr interpolationmode none
attr title "ping rx seq, count"
scalar BusLAN.host[2].pingApp[10] pingTxSeq:count 279
attr interpolationmode none
attr title "ping tx seq, count"
scalar BusLAN.host[2].pingApp[10] numOutOfOrderArrivals:last nan
attr interpolationmode none
attr title "ping out-of-order arrivals, last"
scalar BusLAN.host[2].pingApp[10] numLost:last nan
attr interpolationmode none
attr title "pings lost, last"
scalar BusLAN.host[2].pingApp[10] rtt:mean 0.000250069448341
attr interpolationmode none
attr title "ping round-trip time, mean"
attr unit s
scalar BusLAN.host[2].pingApp[11] "Pings sent" 384
scalar BusLAN.host[2].pingApp[11] "ping loss rate (%)" 0
scalar BusLAN.host[2].pingApp[11] "ping out-of-order rate (%)" 0
scalar BusLAN.host[2].pingApp[11] pingRxSeq:count 297
attr interpolationmode none
attr title "ping rx seq, count"
scalar BusLAN.host[2].pingApp[11] pingTxSeq:count 297
attr interpolationmode none
attr title "ping tx seq, count"
scalar BusLAN.host[2].pingApp[11] numOutOfOrderArrivals:last nan
attr interpolationmode none
attr title "ping out-of-order arrivals, last"
scalar BusLAN.host[2].pingApp[11] numLost:last nan
attr interpolationmode none
attr title "pings lost, last"
scalar BusLAN.host[2].pingApp[11] rtt:mean 5.8872484964286e-005
attr interpolationmode none
attr title "ping round-trip time, mean"
attr unit s
scalar BusLAN.host[2].pingApp[12] "Pings sent" 393
scalar BusLAN.host[2].pingApp[12] "ping loss rate (%)" 0
scalar BusLAN.host[2].pingApp[12] "ping out-of-order rate (%)" 0
scalar BusLAN.host[2].pingApp[12] pingRxSeq:count 309
attr interpolationmode none
attr title "ping rx seq, count"
scalar BusLAN.host[2].pingApp[12] pingTxSeq:count 309
attr interpolationmode none
attr title "ping tx seq, count"
scalar BusLAN.host[2].pingApp[12] numOutOfOrderArrivals:last nan
attr interpolationmode none
attr title "ping out-of-order arrivals, last"
scalar BusLAN.host[2].pingApp[12] numLost:last nan
attr interpolationmode none
attr title "pings lost, last"
scalar BusLAN.host[2].pingApp[12] rtt:mean 0.00019853173021429
attr interpolationmode none
attr title "ping round-trip time, mean"
attr unit s
scalar BusLAN.host[2].pingApp[13] "Pings sent" 378
scalar BusLAN.host[2].pingApp[13] "ping loss rate (%)" 0
scalar BusLAN.host[2].pingApp[13] "ping out-of-order rate (%)" 0
scalar BusLAN.host[2].pingApp[13] pingRxSeq:count 285
attr interpolationmode none
attr title "ping rx seq, count"
scalar BusLAN.host[2].pingApp[13] pingTxSeq:count 285
attr interpolationmode none
attr title "ping tx seq, count"
scalar BusLAN.host[2].pingApp[13] numOutOfOrderArrivals:last nan
attr interpolationmode none
attr title "ping out-of-order arrivals, last"
scalar BusLAN.host[2].pingApp[13] numLost:last nan
attr interpolationmode none
attr title "pings lost, last"
scalar BusLAN.host[2].pingApp[13] rtt:mean 0.00012186681067829
attr interpolationmode none
attr title "ping round-trip time, mean"
attr unit s
scalar BusLAN.host[2].pingApp[14] "Pings sent" 389
scalar BusLAN.host[2].pingApp[14] "ping loss rate (%)" 0
scalar BusLAN.host[2].pingApp[14] "ping out-of-order rate (%)" 0
scalar BusLAN.host[2].pingApp[14] pingRxSeq:count 282
attr interpolationmode none
attr title "ping rx seq, count"
scalar BusLAN.host[2].pingApp[14] pingTxSeq:count 282
attr interpolationmode none
attr title "ping tx seq, count"
scalar BusLAN.host[2].pingApp[14] numOutOfOrderArrivals:last nan
attr interpolationmode none
attr title "ping out-of-order arrivals, last"
scalar BusLAN.host[2].pingApp[14] numLost:last nan
attr interpolationmode none
attr title "pings lost, last"
scalar BusLAN.host[2].pingApp[14] rtt:mean 0.00011742100450588
attr interpolationmode none
attr title "ping round-trip time, mean"
attr unit s
scalar BusLAN.host[2].pingApp[15] "Pings sent" 381
scalar BusLAN.host[2].pingApp[15] "ping loss rate (%)" 0
scalar BusLAN.host[2].pingApp[15] "ping out-of-order rate (%)" 0
scalar BusLAN.host[2].pingApp[15] pingRxSeq:count 289
attr interpolationmode none
attr title "ping rx seq, count"
scalar BusLAN.host[2].pingApp[15] pingTxSeq:count 289
attr interpolationmode none
attr title "ping tx seq, count"
scalar BusLAN.host[2].pingApp[15] numOutOfOrderArrivals:last nan
attr interpolationmode none
attr title "ping out-of-order arrivals, last"
scalar BusLAN.host[2].pingApp[15] numLost:last nan
attr interpolationmode none
attr title "pings lost, last"
scalar BusLAN.host[2].pingApp[15] rtt:mean 0.00021190033520611
attr interpolationmode none
attr title "ping round-trip time, mean"
attr unit s
scalar BusLAN.host[3].networkLayer.arp sentReply:count 0
attr title "ARP replies sent, count"
scalar BusLAN.host[3].networkLayer.arp sentReq:count 0
attr title "ARP request sent, count"
scalar BusLAN.host[3].networkLayer.arp failedARPResolution:count 0
attr title "ARP failed resolutions, count"
scalar BusLAN.host[3].networkLayer.arp completedARPResolution:count 0
attr title "ARP completed resolutions, count"
scalar BusLAN.host[3].networkLayer.arp initiatedARPResolution:count 0
attr title "ARP initiated resolutions, count"
scalar BusLAN.host[3].lo0.lo droppedPkBitError:count 0
attr interpolationmode none
attr source dropPkBitError
attr title "packets dropped/bit error, count"
scalar BusLAN.host[3].lo0.lo droppedPkBitError:sum(packetBytes) 0
attr interpolationmode none
attr source dropPkBitError
attr title "packets dropped/bit error, sum(packetBytes)"
scalar BusLAN.host[3].lo0.lo rcvdPkFromHL:count 1366
attr interpolationmode none
attr source packetReceivedFromUpper
attr title "packets received from higher layer, count"
scalar BusLAN.host[3].lo0.lo rcvdPkFromHL:sum(packetBytes) 883728
attr interpolationmode none
attr source packetReceivedFromUpper
attr title "packets received from higher layer, sum(packetBytes)"
scalar BusLAN.host[3].lo0.lo passedUpPk:count 1366
attr interpolationmode none
attr source packetSentToUpper
attr title "packets passed to higher layer, count"
scalar BusLAN.host[3].lo0.lo passedUpPk:sum(packetBytes) 883728
attr interpolationmode none
attr source packetSentToUpper
attr title "packets passed to higher layer, sum(packetBytes)"
scalar BusLAN.host[3].eth[0].queue.pauseQueue queueLength:max nan
attr interpolationmode sample-hold
attr title "queue length, max"
scalar BusLAN.host[3].eth[0].queue.pauseQueue queueLength:timeavg nan
attr interpolationmode sample-hold
attr title "queue length, timeavg"
statistic BusLAN.host[3].eth[0].queue.pauseQueue queueingTime:histogram
field count 0
field mean nan
field stddev nan
field min nan
field max nan
field sum 0
field sqrsum 0
attr interpolationmode none
attr title "queueing time, histogram"
bin	-inf	0
bin	-0.5	0
bin	-0.46666666666667	0
bin	-0.43333333333333	0
bin	-0.4	0
bin	-0.36666666666667	0
bin	-0.33333333333333	0
bin	-0.3	0
bin	-0.26666666666667	0
bin	-0.23333333333333	0
bin	-0.2	0
bin	-0.16666666666667	0
bin	-0.13333333333333	0
bin	-0.1	0
bin	-0.066666666666667	0
bin	-0.033333333333333	0
bin	0	0
bin	0.033333333333333	0
bin	0.066666666666667	0
bin	0.1	0
bin	0.13333333333333	0
bin	0.16666666666667	0
bin	0.2	0
bin	0.23333333333333	0
bin	0.26666666666667	0
bin	0.3	0
bin	0.33333333333333	0
bin	0.36666666666667	0
bin	0.4	0
bin	0.43333333333333	0
bin	0.46666666666667	0
bin	0.5	0
scalar BusLAN.host[3].eth[0].queue.pauseQueue dropPk:count 0
attr interpolationmode none
attr source dropPkByQueue
attr title "dropped packets, count"
scalar BusLAN.host[3].eth[0].queue.pauseQueue dropPk:sum(packetBytes) 0
attr interpolationmode none
attr source dropPkByQueue
attr title "dropped packets, sum(packetBytes)"
scalar BusLAN.host[3].eth[0].queue.pauseQueue rcvdPk:count 0
attr interpolationmode none
attr title "received packets, count"
scalar BusLAN.host[3].eth[0].queue.pauseQueue rcvdPk:sum(packetBytes) 0
attr interpolationmode none
attr title "received packets, sum(packetBytes)"
scalar BusLAN.host[3].eth[0].queue.dataQueue queueLength:max 5
attr interpolationmode sample-hold
attr title "queue length, max"
scalar BusLAN.host[3].eth[0].queue.dataQueue queueLength:timeavg 0.029626024537831
attr interpolationmode sample-hold
attr title "queue length, timeavg"
statistic BusLAN.host[3].eth[0].queue.dataQueue queueingTime:histogram
field count 13191
field mean 3.3679826692748e-005
field stddev 4.5928851346874e-005
field min 0
field max 0.000311412513
field sum 0.44427059390404
field sqrsum 4.2786725909283e-005
attr interpolationmode none
attr title "queueing time, histogram"
bin	-inf	0
bin	-8.464e-005	0
bin	-7.3354666666667e-005	0
bin	-6.2069333333333e-005	0
bin	-5.0784e-005	0
bin	-3.9498666666667e-005	0
bin	-2.8213333333333e-005	0
bin	-1.6928e-005	0
bin	-5.6426666666667e-006	8184
bin	5.6426666666667e-006	46
bin	1.6928e-005	39
bin	2.8213333333333e-005	53
bin	3.9498666666667e-005	38
bin	5.0784e-005	55
bin	6.2069333333333e-005	35
bin	7.3354666666667e-005	23
bin	8.464e-005	4258
bin	9.5925333333333e-005	43
bin	0.00010721066666667	45
bin	0.000118496	30
bin	0.00012978133333333	34
bin	0.00014106666666667	21
bin	0.000152352	19
bin	0.00016363733333333	218
bin	0.00017492266666667	13
bin	0.000186208	10
bin	0.00019749333333333	5
bin	0.00020877866666667	5
bin	0.000220064	4
bin	0.00023134933333333	4
bin	0.00024263466666667	2
bin	0.00025392	7
scalar BusLAN.host[3].eth[0].queue.dataQueue dropPk:count 0
attr interpolationmode none
attr source dropPkByQueue
attr title "dropped packets, count"
scalar BusLAN.host[3].eth[0].queue.dataQueue dropPk:sum(packetBytes) 0
attr interpolationmode none
attr source dropPkByQueue
attr title "dropped packets, sum(packetBytes)"
scalar BusLAN.host[3].eth[0].queue.dataQueue rcvdPk:count 13191
attr interpolationmode none
attr title "received packets, count"
scalar BusLAN.host[3].eth[0].queue.dataQueue rcvdPk:sum(packetBytes) 9081035
attr interpolationmode none
attr title "received packets, sum(packetBytes)"
scalar BusLAN.host[3].eth[0].mac "simulated time" 20
scalar BusLAN.host[3].eth[0].mac full-duplex 1
scalar BusLAN.host[3].eth[0].mac "frames/sec sent" 872.45
scalar BusLAN.host[3].eth[0].mac "frames/sec rcvd" 874.25
scalar BusLAN.host[3].eth[0].mac "bits/sec sent" 4805457.2
scalar BusLAN.host[3].eth[0].mac "bits/sec rcvd" 4806378.8
scalar BusLAN.host[3].eth[0].mac "rx channel idle (%)" 54.6883564
scalar BusLAN.host[3].eth[0].mac "rx channel utilization (%)" 45.3116436
scalar BusLAN.host[3].eth[0].mac rxPkFromHL:count 13191
attr interpolationmode none
attr source rxPkFromHL
attr title "packet bytes from higher layer, count"
scalar BusLAN.host[3].eth[0].mac rxPkFromHL:sum(packetBytes) 9081035
attr interpolationmode none
attr source rxPkFromHL
attr title "packet bytes from higher layer, sum(packetBytes)"
scalar BusLAN.host[3].eth[0].mac rxPausePkUnits:count 0
attr interpolationmode none
attr title "pause units received, count"
scalar BusLAN.host[3].eth[0].mac rxPausePkUnits:sum 0
attr interpolationmode none
attr title "pause units received, sum"
scalar BusLAN.host[3].eth[0].mac txPausePkUnits:count 0
attr interpolationmode none
attr title "pause units sent, count"
scalar BusLAN.host[3].eth[0].mac txPausePkUnits:sum 0
attr interpolationmode none
attr title "pause units sent, sum"
scalar BusLAN.host[3].eth[0].mac txPk:count 13191
attr interpolationmode none
attr source txPk
attr title "packets transmitted, count"
scalar BusLAN.host[3].eth[0].mac txPk:sum(packetBytes) 9081035
attr interpolationmode none
attr source txPk
attr title "packets transmitted, sum(packetBytes)"
scalar BusLAN.host[3].eth[0].mac droppedPkNotForUs:count 106288
attr interpolationmode none
attr source dropPkNotForUs
attr title "packets dropped/not for us, count"
scalar BusLAN.host[3].eth[0].mac droppedPkNotForUs:sum(packetBytes) 75801416
attr interpolationmode none
attr source dropPkNotForUs
attr title "packets dropped/not for us, sum(packetBytes)"
scalar BusLAN.host[3].eth[0].mac droppedPkBitError:count 0
attr interpolationmode none
attr source dropPkBitError
attr title "packets dropped/bit error, count"
scalar BusLAN.host[3].eth[0].mac droppedPkBitError:sum(packetBytes) 0
attr interpolationmode none
attr source dropPkBitError
attr title "packets dropped/bit error, sum(packetBytes)"
scalar BusLAN.host[3].eth[0].mac droppedPkIfaceDown:count 0
attr interpolationmode none
attr source dropPkIfaceDown
attr title "packets dropped/interface down, count"
scalar BusLAN.host[3].eth[0].mac droppedPkIfaceDown:sum(packetBytes) 0
attr interpolationmode none
attr source dropPkIfaceDown
attr title "packets dropped/interface down, sum(packetBytes)"
scalar BusLAN.host[3].eth[0].mac rxPkOk:count 13191
attr interpolationmode none
attr source rxPkOk
attr title "packets received OK, count"
scalar BusLAN.host[3].eth[0].mac rxPkOk:sum(packetBytes) 9081035
attr interpolationmode none
attr source rxPkOk
attr title "packets received OK, sum(packetBytes)"
scalar BusLAN.host[3].eth[0].mac passedUpPk:count 13191
attr interpolationmode none
attr source packetSentToUpper
attr title "packets passed to higher layer, count"
scalar BusLAN.host[3].eth[0].mac passedUpPk:sum(packetBytes) 9081035
attr interpolationmode none
attr source packetSentToUpper
attr title "packets passed to higher layer, sum(packetBytes)"
scalar BusLAN.host[3].eth[0].encap pauseSent:count 0
attr title "pause sent, count"
scalar BusLAN.host[3].eth[0].encap pauseSent:sum 0
attr title "pause sent, sum"
scalar BusLAN.host[3].eth[0].encap decapPk:count 13191
attr interpolationmode none
attr source decapPk
attr title "packets decapsulated, count"
scalar BusLAN.host[3].eth[0].encap decapPk:sum(packetBytes) 8841173
attr interpolationmode none
attr source decapPk
attr title "packets decapsulated, sum(packetBytes)"
scalar BusLAN.host[3].eth[0].encap encapPk:count 13191
attr interpolationmode none
attr source encapPk
attr title "packets encapsulated, count"
scalar BusLAN.host[3].eth[0].encap encapPk:sum(packetBytes) 8841173
attr interpolationmode none
attr source encapPk
attr title "packets encapsulated, sum(packetBytes)"
scalar BusLAN.host[3].pingApp[0] "Pings sent" 373
scalar BusLAN.host[3].pingApp[0] "ping loss rate (%)" 0
scalar BusLAN.host[3].pingApp[0] "ping out-of-order rate (%)" 0
scalar BusLAN.host[3].pingApp[0] pingRxSeq:count 285
attr interpolationmode none
attr title "ping rx seq, count"
scalar BusLAN.host[3].pingApp[0] pingTxSeq:count 285
attr interpolationmode none
attr title "ping tx seq, count"
scalar BusLAN.host[3].pingApp[0] numOutOfOrderArrivals:last nan
attr interpolationmode none
attr title "ping out-of-order arrivals, last"
scalar BusLAN.host[3].pingApp[0] numLost:last nan
attr interpolationmode none
attr title "pings lost, last"
scalar BusLAN.host[3].pingApp[0] rtt:mean 0.00018928434234118
attr interpolationmode none
attr title "ping round-trip time, mean"
attr unit s
scalar BusLAN.host[3].pingApp[1] "Pings sent" 394
scalar BusLAN.host[3].pingApp[1] "ping loss rate (%)" 0
scalar BusLAN.host[3].pingApp[1] "ping out-of-order rate (%)" 0
scalar BusLAN.host[3].pingApp[1] pingRxSeq:count 303
attr interpolationmode none
attr title "ping rx seq, count"
scalar BusLAN.host[3].pingApp[1] pingTxSeq:count 303
attr interpolationmode none
attr title "ping tx seq, count"
scalar BusLAN.host[3].pingApp[1] numOutOfOrderArrivals:last nan
attr interpolationmode none
attr title "ping out-of-order arrivals, last"
scalar BusLAN.host[3].pingApp[1] numLost:last nan
attr interpolationmode none
attr title "pings lost, last"
scalar BusLAN.host[3].pingApp[1] rtt:mean 0.00011315778111232
attr interpolationmode none
attr title "ping round-trip time, mean"
attr unit s
scalar BusLAN.host[3].pingApp[2] "Pings sent" 389
scalar BusLAN.host[3].pingApp[2] "ping loss rate (%)" 0
scalar BusLAN.host[3].pingApp[2] "ping out-of-order rate (%)" 0
scalar BusLAN.host[3].pingApp[2] pingRxSeq:count 290
attr interpolationmode none
attr title "ping rx seq, count"
scalar BusLAN.host[3].pingApp[2] pingTxSeq:count 290
attr interpolationmode none
attr title "ping tx seq, count"
scalar BusLAN.host[3].pingApp[2] numOutOfOrderArrivals:last nan
attr interpolationmode none
attr title "ping out-of-order arrivals, last"
scalar BusLAN.host[3].pingApp[2] numLost:last nan
attr interpolationmode none
attr title "pings lost, last"
scalar BusLAN.host[3].pingApp[2] rtt:mean 0.00013469857895817
attr interpolationmode none
attr title "ping round-trip time, mean"
attr unit s
scalar BusLAN.host[3].pingApp[3] "Pings sent" 390
scalar BusLAN.host[3].pingApp[3] "ping loss rate (%)" 0
scalar BusLAN.host[3].pingApp[3] "ping out-of-order rate (%)" 0
scalar BusLAN.host[3].pingApp[3] pingRxSeq:count 288
attr interpolationmode none
attr title "ping rx seq, count"
scalar BusLAN.host[3].pingApp[3] pingTxSeq:count 288
attr interpolationmode none
attr title "ping tx seq, count"
scalar BusLAN.host[3].pingApp[3] numOutOfOrderArrivals:last nan
attr interpolationmode none
attr title "ping out-of-order arrivals, last"
scalar BusLAN.host[3].pingApp[3] numLost:last nan
attr interpolationmode none
attr title "pings lost, last"
scalar BusLAN.host[3].pingApp[3] rtt:mean 0.00020415830079924
attr interpolationmode none
attr title "ping round-trip time, mean"
attr unit s
scalar BusLAN.host[3].pingApp[4] "Pings sent" 387
scalar BusLAN.host[3].pingApp[4] "ping loss rate (%)" 0
scalar BusLAN.host[3].pingApp[4] "ping out-of-order rate (%)" 0
scalar BusLAN.host[3].pingApp[4] pingRxSeq:count 299
attr interpolationmode none
attr title "ping rx seq, count"
scalar BusLAN.host[3].pingApp[4] pingTxSeq:count 299
attr interpolationmode none
attr title "ping tx seq, count"
scalar BusLAN.host[3].pingApp[4] numOutOfOrderArrivals:last nan
attr interpolationmode none
attr title "ping out-of-order arrivals, last"
scalar BusLAN.host[3].pingApp[4] numLost:last nan
attr interpolationmode none
attr title "pings lost, last"
scalar BusLAN.host[3].pingApp[4] rtt:mean 0.0001869142469176
attr interpolationmode none
attr title "ping round-trip time, mean"
attr unit s
[...]
attr title "queueing time, histogram"
bin	-inf	0
bin	-0.5	0
bin	-0.46666666666667	0
bin	-0.43333333333333	0
bin	-0.4	0
bin	-0.36666666666667	0
bin	-0.33333333333333	0
bin	-0.3	0
bin	-0.26666666666667	0
bin	-0.23333333333333	0
bin	-0.2	0
bin	-0.16666666666667	0
bin	-0.13333333333333	0
bin	-0.1	0
bin	-0.066666666666667	0
bin	-0.033333333333333	0
bin	0	0
bin	0.033333333333333	0
bin	0.066666666666667	0
bin	0.1	0
bin	0.13333333333333	0
bin	0.16666666666667	0
bin	0.2	0
bin	0.23333333333333	0
bin	0.26666666666667	0
bin	0.3	0
bin	0.33333333333333	0
bin	0.36666666666667	0
bin	0.4	0
bin	0.43333333333333	0
bin	0.46666666666667	0
bin	0.5	0
scalar BusLAN.host[9].eth[0].queue.pauseQueue dropPk:count 0
attr interpolationmode none
attr source dropPkByQueue
attr title "dropped packets, count"
scalar BusLAN.host[9].eth[0].queue.pauseQueue dropPk:sum(packetBytes) 0
attr interpolationmode none
attr source dropPkByQueue
attr title "dropped packets, sum(packetBytes)"
scalar BusLAN.host[9].eth[0].queue.pauseQueue rcvdPk:count 0
attr interpolationmode none
attr title "received packets, count"
scalar BusLAN.host[9].eth[0].queue.pauseQueue rcvdPk:sum(packetBytes) 0
attr interpolationmode none
attr title "received packets, sum(packetBytes)"
scalar BusLAN.host[9].eth[0].queue.dataQueue queueLength:max 5
attr interpolationmode sample-hold
attr title "queue length, max"
scalar BusLAN.host[9].eth[0].queue.dataQueue queueLength:timeavg 0.03265716769045
attr interpolationmode sample-hold
attr title "queue length, timeavg"
statistic BusLAN.host[9].eth[0].queue.dataQueue queueingTime:histogram
field count 13342
field mean 3.6711646292838e-005
field stddev 4.9685405459282e-005
field min 0
field max 0.00033405846
field sum 0.48980678483904
field sqrsum 5.0915733215173e-005
attr interpolationmode none
attr title "queueing time, histogram"
bin	-inf	0
bin	-8.464e-005	0
bin	-7.3354666666667e-005	0
bin	-6.2069333333333e-005	0
bin	-5.0784e-005	0
bin	-3.9498666666667e-005	0
bin	-2.8213333333333e-005	0
bin	-1.6928e-005	0
bin	-5.6426666666667e-006	8065
bin	5.6426666666667e-006	63
bin	1.6928e-005	44
bin	2.8213333333333e-005	55
bin	3.9498666666667e-005	44
bin	5.0784e-005	47
bin	6.2069333333333e-005	42
bin	7.3354666666667e-005	27
bin	8.464e-005	4206
bin	9.5925333333333e-005	54
bin	0.00010721066666667	42
bin	0.000118496	40
bin	0.00012978133333333	38
bin	0.00014106666666667	24
bin	0.000152352	26
bin	0.00016363733333333	445
bin	0.00017492266666667	21
bin	0.000186208	13
bin	0.00019749333333333	9
bin	0.00020877866666667	11
bin	0.000220064	7
bin	0.00023134933333333	8
bin	0.00024263466666667	3
bin	0.00025392	8
scalar BusLAN.host[9].eth[0].queue.dataQueue dropPk:count 0
attr interpolationmode none
attr source dropPkByQueue
attr title "dropped packets, count"
scalar BusLAN.host[9].eth[0].queue.dataQueue dropPk:sum(packetBytes) 0
attr interpolationmode none
attr source dropPkByQueue
attr title "dropped packets, sum(packetBytes)"
scalar BusLAN.host[9].eth[0].queue.dataQueue rcvdPk:count 13342
attr interpolationmode none
attr title "received packets, count"
scalar BusLAN.host[9].eth[0].queue.dataQueue rcvdPk:sum(packetBytes) 9893373
attr interpolationmode none
attr title "received packets, sum(packetBytes)"
scalar BusLAN.host[9].eth[0].mac "simulated time" 20
scalar BusLAN.host[9].eth[0].mac full-duplex 1
scalar BusLAN.host[9].eth[0].mac "frames/sec sent" 876.4
scalar BusLAN.host[9].eth[0].mac "frames/sec rcvd" 878.2
scalar BusLAN.host[9].eth[0].mac "bits/sec sent" 5191604.4
scalar BusLAN.host[9].eth[0].mac "bits/sec rcvd" 5192526
scalar BusLAN.host[9].eth[0].mac "rx channel idle (%)" 55.0747564
scalar BusLAN.host[9].eth[0].mac "rx channel utilization (%)" 44.9252436
scalar BusLAN.host[9].eth[0].mac rxPkFromHL:count 13342
attr interpolationmode none
attr source rxPkFromHL
attr title "packet bytes from higher layer, count"
scalar BusLAN.host[9].eth[0].mac rxPkFromHL:sum(packetBytes) 9893373
attr interpolationmode none
attr source rxPkFromHL
attr title "packet bytes from higher layer, sum(packetBytes)"
scalar BusLAN.host[9].eth[0].mac rxPausePkUnits:count 0
attr interpolationmode none
attr title "pause units received, count"
scalar BusLAN.host[9].eth[0].mac rxPausePkUnits:sum 0
attr interpolationmode none
attr title "pause units received, sum"
scalar BusLAN.host[9].eth[0].mac txPausePkUnits:count 0
attr interpolationmode none
attr title "pause units sent, count"
scalar BusLAN.host[9].eth[0].mac txPausePkUnits:sum 0
attr interpolationmode none
attr title "pause units sent, sum"
scalar BusLAN.host[9].eth[0].mac txPk:count 13342
attr interpolationmode none
attr source txPk
attr title "packets transmitted, count"
scalar BusLAN.host[9].eth[0].mac txPk:sum(packetBytes) 9893373
attr interpolationmode none
attr source txPk
attr title "packets transmitted, sum(packetBytes)"
scalar BusLAN.host[9].eth[0].mac droppedPkNotForUs:count 105986
attr interpolationmode none
attr source dropPkNotForUs
attr title "packets dropped/not for us, count"
scalar BusLAN.host[9].eth[0].mac droppedPkNotForUs:sum(packetBytes) 74176740
attr interpolationmode none
attr source dropPkNotForUs
attr title "packets dropped/not for us, sum(packetBytes)"
scalar BusLAN.host[9].eth[0].mac droppedPkBitError:count 0
attr interpolationmode none
attr source dropPkBitError
attr title "packets dropped/bit error, count"
scalar BusLAN.host[9].eth[0].mac droppedPkBitError:sum(packetBytes) 0
attr interpolationmode none
attr source dropPkBitError
attr title "packets dropped/bit error, sum(packetBytes)"
scalar BusLAN.host[9].eth[0].mac droppedPkIfaceDown:count 0
attr interpolationmode none
attr source dropPkIfaceDown
attr title "packets dropped/interface down, count"
scalar BusLAN.host[9].eth[0].mac droppedPkIfaceDown:sum(packetBytes) 0
attr interpolationmode none
attr source dropPkIfaceDown
attr title "packets dropped/interface down, sum(packetBytes)"
scalar BusLAN.host[9].eth[0].mac rxPkOk:count 13342
attr interpolationmode none
attr source rxPkOk
attr title "packets received OK, count"
scalar BusLAN.host[9].eth[0].mac rxPkOk:sum(packetBytes) 9893373
attr interpolationmode none
attr source rxPkOk
attr title "packets received OK, sum(packetBytes)"
scalar BusLAN.host[9].eth[0].mac passedUpPk:count 13342
attr interpolationmode none
attr source packetSentToUpper
attr title "packets passed to higher layer, count"
scalar BusLAN.host[9].eth[0].mac passedUpPk:sum(packetBytes) 9893373
attr interpolationmode none
attr source packetSentToUpper
attr title "packets passed to higher layer, sum(packetBytes)"
scalar BusLAN.host[9].eth[0].encap pauseSent:count 0
attr title "pause sent, count"
scalar BusLAN.host[9].eth[0].encap pauseSent:sum 0
attr title "pause sent, sum"
scalar BusLAN.host[9].eth[0].encap decapPk:count 13342
attr interpolationmode none
attr source decapPk
attr title "packets decapsulated, count"
scalar BusLAN.host[9].eth[0].encap decapPk:sum(packetBytes) 9652196
attr interpolationmode none
attr source decapPk
attr title "packets decapsulated, sum(packetBytes)"
scalar BusLAN.host[9].eth[0].encap encapPk:count 13342
attr interpolationmode none
attr source encapPk
attr title "packets encapsulated, count"
scalar BusLAN.host[9].eth[0].encap encapPk:sum(packetBytes) 9652196
attr interpolationmode none
attr source encapPk
attr title "packets encapsulated, sum(packetBytes)"
scalar BusLAN.host[9].pingApp[0] "Pings sent" 372
scalar BusLAN.host[9].pingApp[0] "ping loss rate (%)" 0
scalar BusLAN.host[9].pingApp[0] "ping out-of-order rate (%)" 0
scalar BusLAN.host[9].pingApp[0] pingRxSeq:count 279
attr interpolationmode none
attr title "ping rx seq, count"
scalar BusLAN.host[9].pingApp[0] pingTxSeq:count 279
attr interpolationmode none
attr title "ping tx seq, count"
scalar BusLAN.host[9].pingApp[0] numOutOfOrderArrivals:last nan
attr interpolationmode none
attr title "ping out-of-order arrivals, last"
scalar BusLAN.host[9].pingApp[0] numLost:last nan
attr interpolationmode none
attr title "pings lost, last"
scalar BusLAN.host[9].pingApp[0] rtt:mean 0.00028712903434426
attr interpolationmode none
attr title "ping round-trip time, mean"
attr unit s
scalar BusLAN.host[9].pingApp[1] "Pings sent" 374
scalar BusLAN.host[9].pingApp[1] "ping loss rate (%)" 0
scalar BusLAN.host[9].pingApp[1] "ping out-of-order rate (%)" 0
scalar BusLAN.host[9].pingApp[1] pingRxSeq:count 283
attr interpolationmode none
attr title "ping rx seq, count"
scalar BusLAN.host[9].pingApp[1] pingTxSeq:count 283
attr interpolationmode none
attr title "ping tx seq, count"
scalar BusLAN.host[9].pingApp[1] numOutOfOrderArrivals:last nan
attr interpolationmode none
attr title "ping out-of-order arrivals, last"
scalar BusLAN.host[9].pingApp[1] numLost:last nan
attr interpolationmode none
attr title "pings lost, last"
scalar BusLAN.host[9].pingApp[1] rtt:mean 0.00012945099467843
attr interpolationmode none
attr title "ping round-trip time, mean"
attr unit s
scalar BusLAN.host[9].pingApp[2] "Pings sent" 387
scalar BusLAN.host[9].pingApp[2] "ping loss rate (%)" 0
scalar BusLAN.host[9].pingApp[2] "ping out-of-order rate (%)" 0
scalar BusLAN.host[9].pingApp[2] pingRxSeq:count 295
attr interpolationmode none
attr title "ping rx seq, count"
scalar BusLAN.host[9].pingApp[2] pingTxSeq:count 295
attr interpolationmode none
attr title "ping tx seq, count"
scalar BusLAN.host[9].pingApp[2] numOutOfOrderArrivals:last nan
attr interpolationmode none
attr title "ping out-of-order arrivals, last"
scalar BusLAN.host[9].pingApp[2] numLost:last nan
attr interpolationmode none
attr title "pings lost, last"
scalar BusLAN.host[9].pingApp[2] rtt:mean 0.00015983303486466
attr interpolationmode none
attr title "ping round-trip time, mean"
attr unit s
scalar BusLAN.host[9].pingApp[3] "Pings sent" 401
scalar BusLAN.host[9].pingApp[3] "ping loss rate (%)" 0
scalar BusLAN.host[9].pingApp[3] "ping out-of-order rate (%)" 0
scalar BusLAN.host[9].pingApp[3] pingRxSeq:count 303
attr interpolationmode none
attr title "ping rx seq, count"
scalar BusLAN.host[9].pingApp[3] pingTxSeq:count 303
attr interpolationmode none
attr title "ping tx seq, count"
scalar BusLAN.host[9].pingApp[3] numOutOfOrderArrivals:last nan
attr interpolationmode none
attr title "ping out-of-order arrivals, last"
scalar BusLAN.host[9].pingApp[3] numLost:last nan
attr interpolationmode none
attr title "pings lost, last"
scalar BusLAN.host[9].pingApp[3] rtt:mean 0.00042231299622963
attr interpolationmode none
attr title "ping round-trip time, mean"
attr unit s
scalar BusLAN.host[9].pingApp[4] "Pings sent" 390
scalar BusLAN.host[9].pingApp[4] "ping loss rate (%)" 0
scalar BusLAN.host[9].pingApp[4] "ping out-of-order rate (%)" 0
scalar BusLAN.host[9].pingApp[4] pingRxSeq:count 301
attr interpolationmode none
attr title "ping rx seq, count"
scalar BusLAN.host[9].pingApp[4] pingTxSeq:count 301
attr interpolationmode none
attr title "ping tx seq, count"
scalar BusLAN.host[9].pingApp[4] numOutOfOrderArrivals:last nan
attr interpolationmode none
attr title "ping out-of-order arrivals, last"
scalar BusLAN.host[9].pingApp[4] numLost:last nan
attr interpolationmode none
attr title "pings lost, last"
scalar BusLAN.host[9].pingApp[4] rtt:mean 0.00028779721326523
attr interpolationmode none
attr title "ping round-trip time, mean"
attr unit s
scalar BusLAN.host[9].pingApp[5] "Pings sent" 388
scalar BusLAN.host[9].pingApp[5] "ping loss rate (%)" 0
scalar BusLAN.host[9].pingApp[5] "ping out-of-order rate (%)" 0
scalar BusLAN.host[9].pingApp[5] pingRxSeq:count 292
attr interpolationmode none
attr title "ping rx seq, count"
scalar BusLAN.host[9].pingApp[5] pingTxSeq:count 292
attr interpolationmode none
attr title "ping tx seq, count"
scalar BusLAN.host[9].pingApp[5] numOutOfOrderArrivals:last nan
attr interpolationmode none
attr title "ping out-of-order arrivals, last"
scalar BusLAN.host[9].pingApp[5] numLost:last nan
attr interpolationmode none
attr title "pings lost, last"
scalar BusLAN.host[9].pingApp[5] rtt:mean 0.00011145822127132
attr interpolationmode none
attr title "ping round-trip time, mean"
attr unit s
scalar BusLAN.host[9].pingApp[6] "Pings sent" 375
scalar BusLAN.host[9].pingApp[6] "ping loss rate (%)" 0
scalar BusLAN.host[9].pingApp[6] "ping out-of-order rate (%)" 0
scalar BusLAN.host[9].pingApp[6] pingRxSeq:count 286
attr interpolationmode none
attr title "ping rx seq, count"
scalar BusLAN.host[9].pingApp[6] pingTxSeq:count 286
attr interpolationmode none
attr title "ping tx seq, count"
scalar BusLAN.host[9].pingApp[6] numOutOfOrderArrivals:last nan
attr interpolationmode none
attr title "ping out-of-order arrivals, last"
scalar BusLAN.host[9].pingApp[6] numLost:last nan
attr interpolationmode none
attr title "pings lost, last"
scalar BusLAN.host[9].pingApp[6] rtt:mean 0.0001297466822
attr interpolationmode none
attr title "ping round-trip time, mean"
attr unit s
scalar BusLAN.host[9].pingApp[7] "Pings sent" 404
scalar BusLAN.host[9].pingApp[7] "ping loss rate (%)" 0
scalar BusLAN.host[9].pingApp[7] "ping out-of-order rate (%)" 0
scalar BusLAN.host[9].pingApp[7] pingRxSeq:count 306
attr interpolationmode none
attr title "ping rx seq, count"
scalar BusLAN.host[9].pingApp[7] pingTxSeq:count 306
attr interpolationmode none
attr title "ping tx seq, count"
scalar BusLAN.host[9].pingApp[7] numOutOfOrderArrivals:last nan
attr interpolationmode none
attr title "ping out-of-order arrivals, last"
scalar BusLAN.host[9].pingApp[7] numLost:last nan
attr interpolationmode none
attr title "pings lost, last"
scalar BusLAN.host[9].pingApp[7] rtt:mean 0.00010380471885866
attr interpolationmode none
attr title "ping round-trip time, mean"
attr unit s
scalar BusLAN.host[9].pingApp[8] "Pings sent" 396
scalar BusLAN.host[9].pingApp[8] "ping loss rate (%)" 0
scalar BusLAN.host[9].pingApp[8] "ping out-of-order rate (%)" 0
scalar BusLAN.host[9].pingApp[8] pingRxSeq:count 289
attr interpolationmode none
attr title "ping rx seq, count"
scalar BusLAN.host[9].pingApp[8] pingTxSeq:count 289
attr interpolationmode none
attr title "ping tx seq, count"
scalar BusLAN.host[9].pingApp[8] numOutOfOrderArrivals:last nan
attr interpolationmode none
attr title "ping out-of-order arrivals, last"
scalar BusLAN.host[9].pingApp[8] numLost:last nan
attr interpolationmode none
attr title "pings lost, last"
scalar BusLAN.host[9].pingApp[8] rtt:mean 0.00024750502225391
attr interpolationmode none
attr title "ping round-trip time, mean"
attr unit s
scalar BusLAN.host[9].pingApp[9] "Pings sent" 384
scalar BusLAN.host[9].pingApp[9] "ping loss rate (%)" 0
scalar BusLAN.host[9].pingApp[9] "ping out-of-order rate (%)" 0
scalar BusLAN.host[9].pingApp[9] pingRxSeq:count 291
attr interpolationmode none
attr title "ping rx seq, count"
scalar BusLAN.host[9].pingApp[9] pingTxSeq:count 291
attr interpolationmode none
attr title "ping tx seq, count"
scalar BusLAN.host[9].pingApp[9] numOutOfOrderArrivals:last nan
attr interpolationmode none
attr title "ping out-of-order arrivals, last"
scalar BusLAN.host[9].pingApp[9] numLost:last nan
attr interpolationmode none
attr title "pings lost, last"
scalar BusLAN.host[9].pingApp[9] rtt:mean 0.00020021335292776
attr interpolationmode none
attr title "ping round-trip time, mean"
attr unit s
scalar BusLAN.host[9].pingApp[10] "Pings sent" 395
scalar BusLAN.host[9].pingApp[10] "ping loss rate (%)" 0
scalar BusLAN.host[9].pingApp[10] "ping out-of-order rate (%)" 0
scalar BusLAN.host[9].pingApp[10] pingRxSeq:count 296
attr interpolationmode none
attr title "ping rx seq, count"
scalar BusLAN.host[9].pingApp[10] pingTxSeq:count 296
attr interpolationmode none
attr title "ping tx seq, count"
scalar BusLAN.host[9].pingApp[10] numOutOfOrderArrivals:last nan
attr interpolationmode none
attr title "ping out-of-order arrivals, last"
scalar BusLAN.host[9].pingApp[10] numLost:last nan
attr interpolationmode none
attr title "pings lost, last"
scalar BusLAN.host[9].pingApp[10] rtt:mean 0.00012605717027612
attr interpolationmode none
attr title "ping round-trip time, mean"
attr unit s
scalar BusLAN.host[9].pingApp[11] "Pings sent" 389
scalar BusLAN.host[9].pingApp[11] "ping loss rate (%)" 0
scalar BusLAN.host[9].pingApp[11] "ping out-of-order rate (%)" 0
scalar BusLAN.host[9].pingApp[11] pingRxSeq:count 298
attr interpolationmode none
attr title "ping rx seq, count"
scalar BusLAN.host[9].pingApp[11] pingTxSeq:count 298
attr interpolationmode none
attr title "ping tx seq, count"
scalar BusLAN.host[9].pingApp[11] numOutOfOrderArrivals:last nan
attr interpolationmode none
attr title "ping out-of-order arrivals, last"
scalar BusLAN.host[9].pingApp[11] numLost:last nan
attr interpolationmode none
attr title "pings lost, last"
scalar BusLAN.host[9].pingApp[11] rtt:mean 0.00032120422701111
attr interpolationmode none
attr title "ping round-trip time, mean"
attr unit s
scalar BusLAN.host[9].pingApp[12] "Pings sent" 384
scalar BusLAN.host[9].pingApp[12] "ping loss rate (%)" 0
scalar BusLAN.host[9].pingApp[12] "ping out-of-order rate (%)" 0
scalar BusLAN.host[9].pingApp[12] pingRxSeq:count 291
attr interpolationmode none
attr title "ping rx seq, count"
scalar BusLAN.host[9].pingApp[12] pingTxSeq:count 291
attr interpolationmode none
attr title "ping tx seq, count"
scalar BusLAN.host[9].pingApp[12] numOutOfOrderArrivals:last nan
attr interpolationmode none
attr title "ping out-of-order arrivals, last"
scalar BusLAN.host[9].pingApp[12] numLost:last nan
attr interpolationmode none
attr title "pings lost, last"
scalar BusLAN.host[9].pingApp[12] rtt:mean 0.0001507950522902
attr interpolationmode none
attr title "ping round-trip time, mean"
attr unit s
scalar BusLAN.host[9].pingApp[13] "Pings sent" 387
scalar BusLAN.host[9].pingApp[13] "ping loss rate (%)" 0
scalar BusLAN.host[9].pingApp[13] "ping out-of-order rate (%)" 0
scalar BusLAN.host[9].pingApp[13] pingRxSeq:count 293
attr interpolationmode none
attr title "ping rx seq, count"
scalar BusLAN.host[9].pingApp[13] pingTxSeq:count 293
attr interpolationmode none
attr title "ping tx seq, count"
scalar BusLAN.host[9].pingApp[13] numOutOfOrderArrivals:last nan
attr interpolationmode none
attr title "ping out-of-order arrivals, last"
scalar BusLAN.host[9].pingApp[13] numLost:last nan
attr interpolationmode none
attr title "pings lost, last"
scalar BusLAN.host[9].pingApp[13] rtt:mean 0.00023429422425185
attr interpolationmode none
attr title "ping round-trip time, mean"
attr unit s
scalar BusLAN.host[9].pingApp[14] "Pings sent" 379
scalar BusLAN.host[9].pingApp[14] "ping loss rate (%)" 0
scalar BusLAN.host[9].pingApp[14] "ping out-of-order rate (%)" 0
scalar BusLAN.host[9].pingApp[14] pingRxSeq:count 290
attr interpolationmode none
attr title "ping rx seq, count"
scalar BusLAN.host[9].pingApp[14] pingTxSeq:count 290
attr interpolationmode none
attr title "ping tx seq, count"
scalar BusLAN.host[9].pingApp[14] numOutOfOrderArrivals:last nan
attr interpolationmode none
attr title "ping out-of-order arrivals, last"
scalar BusLAN.host[9].pingApp[14] numLost:last nan
attr interpolationmode none
attr title "pings lost, last"
scalar BusLAN.host[9].pingApp[14] rtt:mean 0.00015361358231298
attr interpolationmode none
attr title "ping round-trip time, mean"
attr unit s
scalar BusLAN.host[9].pingApp[15] "Pings sent" 372
scalar BusLAN.host[9].pingApp[15] "ping loss rate (%)" 0
scalar BusLAN.host[9].pingApp[15] "ping out-of-order rate (%)" 0
scalar BusLAN.host[9].pingApp[15] pingRxSeq:count 285
attr interpolationmode none
attr title "ping rx seq, count"
scalar BusLAN.host[9].pingApp[15] pingTxSeq:count 285
attr interpolationmode none
attr title "ping tx seq, count"
scalar BusLAN.host[9].pingApp[15] numOutOfOrderArrivals:last nan
attr interpolationmode none
attr title "ping out-of-order arrivals, last"
scalar BusLAN.host[9].pingApp[15] numLost:last nan
attr interpolationmode none
attr title "pings lost, last"
scalar BusLAN.host[9].pingApp[15] rtt:mean 0.00021413684407364
attr interpolationmode none
attr title "ping round-trip time, mean"
attr unit s
scalar BusLAN.bus "simulated time" 20
scalar BusLAN.bus "messages handled" 0
scalar BusLAN.bus messages/sec 0

