version 2
run MeshLAN10-base-1-20180110-22:21:08-6756
attr configname MeshLAN10-base
attr datetime 20180110-22:21:08
attr experiment MeshLAN10-base
attr inifile MeshLAN.ini
attr iterationvars $pa=28
attr iterationvarsf pa=28-
attr measurement $pa=28
attr network MeshLAN
attr processid 6756
attr repetition 0
attr replication #0
attr resultdir results
attr runnumber 1
attr seedset 1
itervar pa 28
param *.numHosts 10
param **.datarate 10Mbps
param **.host[*].pingApp[*].sendInterval "truncnormal(50ms, 25ms)"
param **.host[*].pingApp[*].packetSize "truncnormal(1024B, 512B)"
param **.queueType "\"DropTailQueue\""
param **.frameCapacity 10
param **.mtu 1024B
param **.host[*].numPingApps 28
param **.host[*].pingApp[*].typename "\"PingApp\""
param **.host[*].pingApp[*].count 1
param **.host[*].pingApp[*].startTime "truncnormal(200ms, 100ms)"
param **.host[*].pingApp[*].destAddr "\"*\""

scalar MeshLAN.host[0].networkLayer.arp sentReply:count 0
attr title "ARP replies sent, count"
scalar MeshLAN.host[0].networkLayer.arp sentReq:count 0
attr title "ARP request sent, count"
scalar MeshLAN.host[0].networkLayer.arp failedARPResolution:count 0
attr title "ARP failed resolutions, count"
scalar MeshLAN.host[0].networkLayer.arp completedARPResolution:count 0
attr title "ARP completed resolutions, count"
scalar MeshLAN.host[0].networkLayer.arp initiatedARPResolution:count 0
attr title "ARP initiated resolutions, count"
scalar MeshLAN.host[0].lo0.lo droppedPkBitError:count 0
attr interpolationmode none
attr source dropPkBitError
attr title "packets dropped/bit error, count"
scalar MeshLAN.host[0].lo0.lo droppedPkBitError:sum(packetBytes) 0
attr interpolationmode none
attr source dropPkBitError
attr title "packets dropped/bit error, sum(packetBytes)"
scalar MeshLAN.host[0].lo0.lo rcvdPkFromHL:count 220
attr interpolationmode none
attr source packetReceivedFromUpper
attr title "packets received from higher layer, count"
scalar MeshLAN.host[0].lo0.lo rcvdPkFromHL:sum(packetBytes) 155206
attr interpolationmode none
attr source packetReceivedFromUpper
attr title "packets received from higher layer, sum(packetBytes)"
scalar MeshLAN.host[0].lo0.lo passedUpPk:count 220
attr interpolationmode none
attr source packetSentToUpper
attr title "packets passed to higher layer, count"
scalar MeshLAN.host[0].lo0.lo passedUpPk:sum(packetBytes) 155206
attr interpolationmode none
attr source packetSentToUpper
attr title "packets passed to higher layer, sum(packetBytes)"
scalar MeshLAN.host[0].eth[0].queue.pauseQueue queueLength:max nan
attr interpolationmode sample-hold
attr title "queue length, max"
scalar MeshLAN.host[0].eth[0].queue.pauseQueue queueLength:timeavg nan
attr interpolationmode sample-hold
attr title "queue length, timeavg"
statistic MeshLAN.host[0].eth[0].queue.pauseQueue queueingTime:histogram
field count 0
field mean nan
field stddev nan
field min nan
field max nan
field sum 0
field sqrsum 0
attr interpolationmode none
attr title "queueing time, histogram"
bin	-inf	0
bin	-0.5	0
bin	-0.46666666666667	0
bin	-0.43333333333333	0
bin	-0.4	0
bin	-0.36666666666667	0
bin	-0.33333333333333	0
bin	-0.3	0
bin	-0.26666666666667	0
bin	-0.23333333333333	0
bin	-0.2	0
bin	-0.16666666666667	0
bin	-0.13333333333333	0
bin	-0.1	0
bin	-0.066666666666667	0
bin	-0.033333333333333	0
bin	0	0
bin	0.033333333333333	0
bin	0.066666666666667	0
bin	0.1	0
bin	0.13333333333333	0
bin	0.16666666666667	0
bin	0.2	0
bin	0.23333333333333	0
bin	0.26666666666667	0
bin	0.3	0
bin	0.33333333333333	0
bin	0.36666666666667	0
bin	0.4	0
bin	0.43333333333333	0
bin	0.46666666666667	0
bin	0.5	0
scalar MeshLAN.host[0].eth[0].queue.pauseQueue dropPk:count 0
attr interpolationmode none
attr source dropPkByQueue
attr title "dropped packets, count"
scalar MeshLAN.host[0].eth[0].queue.pauseQueue dropPk:sum(packetBytes) 0
attr interpolationmode none
attr source dropPkByQueue
attr title "dropped packets, sum(packetBytes)"
scalar MeshLAN.host[0].eth[0].queue.pauseQueue rcvdPk:count 0
attr interpolationmode none
attr title "received packets, count"
scalar MeshLAN.host[0].eth[0].queue.pauseQueue rcvdPk:sum(packetBytes) 0
attr interpolationmode none
attr title "received packets, sum(packetBytes)"
scalar MeshLAN.host[0].eth[0].queue.dataQueue queueLength:max 10
attr interpolationmode sample-hold
attr title "queue length, max"
scalar MeshLAN.host[0].eth[0].queue.dataQueue queueLength:timeavg 0.6613741076369
attr interpolationmode sample-hold
attr title "queue length, timeavg"
statistic MeshLAN.host[0].eth[0].queue.dataQueue queueingTime:histogram
field count 13168
field mean 0.00075341546545705
field stddev 0.00081345748301686
field min 0
field max 0.005969834279
field sum 9.9209748491384
field sqrsum 0.016187391964346
attr interpolationmode none
attr title "queueing time, histogram"
bin	-inf	0
bin	-0.0017561182235	0
bin	-0.0015219691270333	0
bin	-0.0012878200305667	0
bin	-0.0010536709341	0
bin	-0.00081952183763333	0
bin	-0.00058537274116667	0
bin	-0.0003512236447	0
bin	-0.00011707454823333	4641
bin	0.00011707454823333	688
bin	0.0003512236447	688
bin	0.00058537274116667	670
bin	0.00081952183763333	3071
bin	0.0010536709341	779
bin	0.0012878200305667	650
bin	0.0015219691270333	517
bin	0.0017561182235	440
bin	0.0019902673199667	265
bin	0.0022244164164333	216
bin	0.0024585655129	155
bin	0.0026927146093667	101
bin	0.0029268637058333	81
bin	0.0031610128023	69
bin	0.0033951618987667	34
bin	0.0036293109952333	29
bin	0.0038634600917	20
bin	0.0040976091881667	11
bin	0.0043317582846333	12
bin	0.0045659073811	8
bin	0.0048000564775667	10
bin	0.0050342055740333	4
bin	0.0052683546705	9
scalar MeshLAN.host[0].eth[0].queue.dataQueue dropPk:count 1
attr interpolationmode none
attr source dropPkByQueue
attr title "dropped packets, count"
scalar MeshLAN.host[0].eth[0].queue.dataQueue dropPk:sum(packetBytes) 895
attr interpolationmode none
attr source dropPkByQueue
attr title "dropped packets, sum(packetBytes)"
scalar MeshLAN.host[0].eth[0].queue.dataQueue rcvdPk:count 13168
attr interpolationmode none
attr title "received packets, count"
scalar MeshLAN.host[0].eth[0].queue.dataQueue rcvdPk:sum(packetBytes) 9493311
attr interpolationmode none
attr title "received packets, sum(packetBytes)"
scalar MeshLAN.host[0].eth[0].mac "simulated time" 20
scalar MeshLAN.host[0].eth[0].mac full-duplex 1
scalar MeshLAN.host[0].eth[0].mac "frames/sec sent" 885.75
scalar MeshLAN.host[0].eth[0].mac "frames/sec rcvd" 886.1
scalar MeshLAN.host[0].eth[0].mac "bits/sec sent" 5105785.6
scalar MeshLAN.host[0].eth[0].mac "bits/sec rcvd" 5108551.2
scalar MeshLAN.host[0].eth[0].mac "rx channel idle (%)" 48.347384
scalar MeshLAN.host[0].eth[0].mac "rx channel utilization (%)" 51.652616
scalar MeshLAN.host[0].eth[0].mac rxPkFromHL:count 13168
attr interpolationmode none
attr source rxPkFromHL
attr title "packet bytes from higher layer, count"
scalar MeshLAN.host[0].eth[0].mac rxPkFromHL:sum(packetBytes) 9492747
attr interpolationmode none
attr source rxPkFromHL
attr title "packet bytes from higher layer, sum(packetBytes)"
scalar MeshLAN.host[0].eth[0].mac rxPausePkUnits:count 0
attr interpolationmode none
attr title "pause units received, count"
scalar MeshLAN.host[0].eth[0].mac rxPausePkUnits:sum 0
attr interpolationmode none
attr title "pause units received, sum"
scalar MeshLAN.host[0].eth[0].mac txPausePkUnits:count 0
attr interpolationmode none
attr title "pause units sent, count"
scalar MeshLAN.host[0].eth[0].mac txPausePkUnits:sum 0
attr interpolationmode none
attr title "pause units sent, sum"
scalar MeshLAN.host[0].eth[0].mac txPk:count 13169
attr interpolationmode none
attr source txPk
attr title "packets transmitted, count"
scalar MeshLAN.host[0].eth[0].mac txPk:sum(packetBytes) 9493785
attr interpolationmode none
attr source txPk
attr title "packets transmitted, sum(packetBytes)"
scalar MeshLAN.host[0].eth[0].mac droppedPkNotForUs:count 0
attr interpolationmode none
attr source dropPkNotForUs
attr title "packets dropped/not for us, count"
scalar MeshLAN.host[0].eth[0].mac droppedPkNotForUs:sum(packetBytes) 0
attr interpolationmode none
attr source dropPkNotForUs
attr title "packets dropped/not for us, sum(packetBytes)"
scalar MeshLAN.host[0].eth[0].mac droppedPkBitError:count 0
attr interpolationmode none
attr source dropPkBitError
attr title "packets dropped/bit error, count"
scalar MeshLAN.host[0].eth[0].mac droppedPkBitError:sum(packetBytes) 0
attr interpolationmode none
attr source dropPkBitError
attr title "packets dropped/bit error, sum(packetBytes)"
scalar MeshLAN.host[0].eth[0].mac droppedPkIfaceDown:count 0
attr interpolationmode none
attr source dropPkIfaceDown
attr title "packets dropped/interface down, count"
scalar MeshLAN.host[0].eth[0].mac droppedPkIfaceDown:sum(packetBytes) 0
attr interpolationmode none
attr source dropPkIfaceDown
attr title "packets dropped/interface down, sum(packetBytes)"
scalar MeshLAN.host[0].eth[0].mac rxPkOk:count 13168
attr interpolationmode none
attr source rxPkOk
attr title "packets received OK, count"
scalar MeshLAN.host[0].eth[0].mac rxPkOk:sum(packetBytes) 9493363
attr interpolationmode none
attr source rxPkOk
attr title "packets received OK, sum(packetBytes)"
scalar MeshLAN.host[0].eth[0].mac passedUpPk:count 13168
attr interpolationmode none
attr source packetSentToUpper
attr title "packets passed to higher layer, count"
scalar MeshLAN.host[0].eth[0].mac passedUpPk:sum(packetBytes) 9493363
attr interpolationmode none
attr source packetSentToUpper
attr title "packets passed to higher layer, sum(packetBytes)"
scalar MeshLAN.host[0].eth[0].encap pauseSent:count 0
attr title "pause sent, count"
scalar MeshLAN.host[0].eth[0].encap pauseSent:sum 0
attr title "pause sent, sum"
scalar MeshLAN.host[0].eth[0].encap decapPk:count 13168
attr interpolationmode none
attr source decapPk
attr title "packets decapsulated, count"
scalar MeshLAN.host[0].eth[0].encap decapPk:sum(packetBytes) 9256127
attr interpolationmode none
attr source decapPk
attr title "packets decapsulated, sum(packetBytes)"
scalar MeshLAN.host[0].eth[0].encap encapPk:count 13168
attr interpolationmode none
attr source encapPk
attr title "packets encapsulated, count"
scalar MeshLAN.host[0].eth[0].encap encapPk:sum(packetBytes) 9256075
attr interpolationmode none
attr source encapPk
attr title "packets encapsulated, sum(packetBytes)"
scalar MeshLAN.host[0].pingApp[0] "Pings sent" 385
scalar MeshLAN.host[0].pingApp[0] "ping loss rate (%)" 0
scalar MeshLAN.host[0].pingApp[0] "ping out-of-order rate (%)" 0
scalar MeshLAN.host[0].pingApp[0] pingRxSeq:count 297
attr interpolationmode none
attr title "ping rx seq, count"
scalar MeshLAN.host[0].pingApp[0] pingTxSeq:count 297
attr interpolationmode none
attr title "ping tx seq, count"
scalar MeshLAN.host[0].pingApp[0] numOutOfOrderArrivals:last nan
attr interpolationmode none
attr title "ping out-of-order arrivals, last"
scalar MeshLAN.host[0].pingApp[0] numLost:last nan
attr interpolationmode none
attr title "pings lost, last"
scalar MeshLAN.host[0].pingApp[0] rtt:mean 0.0052176172453767
attr interpolationmode none
attr title "ping round-trip time, mean"
attr unit s
scalar MeshLAN.host[0].pingApp[1] "Pings sent" 387
scalar MeshLAN.host[0].pingApp[1] "ping loss rate (%)" 0
scalar MeshLAN.host[0].pingApp[1] "ping out-of-order rate (%)" 0
scalar MeshLAN.host[0].pingApp[1] pingRxSeq:count 293
attr interpolationmode none
attr title "ping rx seq, count"
scalar MeshLAN.host[0].pingApp[1] pingTxSeq:count 293
attr interpolationmode none
attr title "ping tx seq, count"
scalar MeshLAN.host[0].pingApp[1] numOutOfOrderArrivals:last nan
attr interpolationmode none
attr title "ping out-of-order arrivals, last"
scalar MeshLAN.host[0].pingApp[1] numLost:last nan
attr interpolationmode none
attr title "pings lost, last"
scalar MeshLAN.host[0].pingApp[1] rtt:mean 0.0045772395703345
attr interpolationmode none
attr title "ping round-trip time, mean"
attr unit s
scalar MeshLAN.host[0].pingApp[2] "Pings sent" 379
scalar MeshLAN.host[0].pingApp[2] "ping loss rate (%)" 0
scalar MeshLAN.host[0].pingApp[2] "ping out-of-order rate (%)" 0.26385224274406
scalar MeshLAN.host[0].pingApp[2] pingRxSeq:count 285
attr interpolationmode none
attr title "ping rx seq, count"
scalar MeshLAN.host[0].pingApp[2] pingTxSeq:count 285
attr interpolationmode none
attr title "ping tx seq, count"
scalar MeshLAN.host[0].pingApp[2] numOutOfOrderArrivals:last 1
attr interpolationmode none
attr title "ping out-of-order arrivals, last"
scalar MeshLAN.host[0].pingApp[2] numLost:last 0
attr interpolationmode none
attr title "pings lost, last"
scalar MeshLAN.host[0].pingApp[2] rtt:mean 0.0045160609146211
attr interpolationmode none
attr title "ping round-trip time, mean"
attr unit s
scalar MeshLAN.host[0].pingApp[3] "Pings sent" 381
scalar MeshLAN.host[0].pingApp[3] "ping loss rate (%)" 0.26246719160105
scalar MeshLAN.host[0].pingApp[3] "ping out-of-order rate (%)" 0
scalar MeshLAN.host[0].pingApp[3] pingRxSeq:count 289
attr interpolationmode none
attr title "ping rx seq, count"
scalar MeshLAN.host[0].pingApp[3] pingTxSeq:count 289
attr interpolationmode none
attr title "ping tx seq, count"
scalar MeshLAN.host[0].pingApp[3] numOutOfOrderArrivals:last nan
attr interpolationmode none
attr title "ping out-of-order arrivals, last"
scalar MeshLAN.host[0].pingApp[3] numLost:last nan
attr interpolationmode none
attr title "pings lost, last"
scalar MeshLAN.host[0].pingApp[3] rtt:mean 0.0036474764675986
attr interpolationmode none
attr title "ping round-trip time, mean"
attr unit s
scalar MeshLAN.host[0].pingApp[4] "Pings sent" 385
scalar MeshLAN.host[0].pingApp[4] "ping loss rate (%)" 0.25974025974026
scalar MeshLAN.host[0].pingApp[4] "ping out-of-order rate (%)" 0.25974025974026
scalar MeshLAN.host[0].pingApp[4] pingRxSeq:count 291
attr interpolationmode none
attr title "ping rx seq, count"
scalar MeshLAN.host[0].pingApp[4] pingTxSeq:count 291
attr interpolationmode none
attr title "ping tx seq, count"
scalar MeshLAN.host[0].pingApp[4] numOutOfOrderArrivals:last 1
attr interpolationmode none
attr title "ping out-of-order arrivals, last"
scalar MeshLAN.host[0].pingApp[4] numLost:last 1
attr interpolationmode none
attr title "pings lost, last"
scalar MeshLAN.host[0].pingApp[4] rtt:mean 0.0052380260348916
attr interpolationmode none
attr title "ping round-trip time, mean"
attr unit s
scalar MeshLAN.host[0].pingApp[5] "Pings sent" 400
scalar MeshLAN.host[0].pingApp[5] "ping loss rate (%)" 0
scalar MeshLAN.host[0].pingApp[5] "ping out-of-order rate (%)" 0.25
scalar MeshLAN.host[0].pingApp[5] pingRxSeq:count 301
attr interpolationmode none
attr title "ping rx seq, count"
scalar MeshLAN.host[0].pingApp[5] pingTxSeq:count 301
attr interpolationmode none
attr title "ping tx seq, count"
scalar MeshLAN.host[0].pingApp[5] numOutOfOrderArrivals:last 1
attr interpolationmode none
attr title "ping out-of-order arrivals, last"
scalar MeshLAN.host[0].pingApp[5] numLost:last 0
attr interpolationmode none
attr title "pings lost, last"
scalar MeshLAN.host[0].pingApp[5] rtt:mean 0.0038338690991933
attr interpolationmode none
attr title "ping round-trip time, mean"
attr unit s
scalar MeshLAN.host[0].pingApp[6] "Pings sent" 390
scalar MeshLAN.host[0].pingApp[6] "ping loss rate (%)" 0
scalar MeshLAN.host[0].pingApp[6] "ping out-of-order rate (%)" 0
scalar MeshLAN.host[0].pingApp[6] pingRxSeq:count 295
attr interpolationmode none
attr title "ping rx seq, count"
scalar MeshLAN.host[0].pingApp[6] pingTxSeq:count 295
attr interpolationmode none
attr title "ping tx seq, count"
scalar MeshLAN.host[0].pingApp[6] numOutOfOrderArrivals:last nan
attr interpolationmode none
attr title "ping out-of-order arrivals, last"
scalar MeshLAN.host[0].pingApp[6] numLost:last nan
attr interpolationmode none
attr title "pings lost, last"
scalar MeshLAN.host[0].pingApp[6] rtt:mean 0.0035451494555411
attr interpolationmode none
attr title "ping round-trip time, mean"
attr unit s
scalar MeshLAN.host[0].pingApp[7] "Pings sent" 384
scalar MeshLAN.host[0].pingApp[7] "ping loss rate (%)" 0
scalar MeshLAN.host[0].pingApp[7] "ping out-of-order rate (%)" 0
scalar MeshLAN.host[0].pingApp[7] pingRxSeq:count 288
attr interpolationmode none
attr title "ping rx seq, count"
scalar MeshLAN.host[0].pingApp[7] pingTxSeq:count 288
attr interpolationmode none
attr title "ping tx seq, count"
scalar MeshLAN.host[0].pingApp[7] numOutOfOrderArrivals:last nan
attr interpolationmode none
attr title "ping out-of-order arrivals, last"
scalar MeshLAN.host[0].pingApp[7] numLost:last nan
attr interpolationmode none
attr title "pings lost, last"
scalar MeshLAN.host[0].pingApp[7] rtt:mean 0.0039792358799789
attr interpolationmode none
attr title "ping round-trip time, mean"
attr unit s
scalar MeshLAN.host[0].pingApp[8] "Pings sent" 400
scalar MeshLAN.host[0].pingApp[8] "ping loss rate (%)" 0
scalar MeshLAN.host[0].pingApp[8] "ping out-of-order rate (%)" 0
scalar MeshLAN.host[0].pingApp[8] pingRxSeq:count 298
attr interpolationmode none
attr title "ping rx seq, count"
scalar MeshLAN.host[0].pingApp[8] pingTxSeq:count 298
attr interpolationmode none
attr title "ping tx seq, count"
scalar MeshLAN.host[0].pingApp[8] numOutOfOrderArrivals:last nan
attr interpolationmode none
attr title "ping out-of-order arrivals, last"
scalar MeshLAN.host[0].pingApp[8] numLost:last nan
attr interpolationmode none
attr title "pings lost, last"
scalar MeshLAN.host[0].pingApp[8] rtt:mean 0.002996755166157
attr interpolationmode none
attr title "ping round-trip time, mean"
attr unit s
scalar MeshLAN.host[0].pingApp[9] "Pings sent" 374
scalar MeshLAN.host[0].pingApp[9] "ping loss rate (%)" 0
scalar MeshLAN.host[0].pingApp[9] "ping out-of-order rate (%)" 0.53475935828877
scalar MeshLAN.host[0].pingApp[9] pingRxSeq:count 285
attr interpolationmode none
attr title "ping rx seq, count"
scalar MeshLAN.host[0].pingApp[9] pingTxSeq:count 284
attr interpolationmode none
attr title "ping tx seq, count"
scalar MeshLAN.host[0].pingApp[9] numOutOfOrderArrivals:last 2
attr interpolationmode none
attr title "ping out-of-order arrivals, last"
scalar MeshLAN.host[0].pingApp[9] numLost:last 0
attr interpolationmode none
attr title "pings lost, last"
scalar MeshLAN.host[0].pingApp[9] rtt:mean 0.0047680440074648
attr interpolationmode none
attr title "ping round-trip time, mean"
attr unit s
scalar MeshLAN.host[0].pingApp[10] "Pings sent" 384
scalar MeshLAN.host[0].pingApp[10] "ping loss rate (%)" 0
scalar MeshLAN.host[0].pingApp[10] "ping out-of-order rate (%)" 0.26041666666667
scalar MeshLAN.host[0].pingApp[10] pingRxSeq:count 283
attr interpolationmode none
attr title "ping rx seq, count"
scalar MeshLAN.host[0].pingApp[10] pingTxSeq:count 283
attr interpolationmode none
attr title "ping tx seq, count"
scalar MeshLAN.host[0].pingApp[10] numOutOfOrderArrivals:last nan
attr interpolationmode none
attr title "ping out-of-order arrivals, last"
scalar MeshLAN.host[0].pingApp[10] numLost:last nan
attr interpolationmode none
attr title "pings lost, last"
scalar MeshLAN.host[0].pingApp[10] rtt:mean 0.0038344601537849
attr interpolationmode none
attr title "ping round-trip time, mean"
attr unit s
scalar MeshLAN.host[0].pingApp[11] "Pings sent" 391
scalar MeshLAN.host[0].pingApp[11] "ping loss rate (%)" 0.51150895140665
scalar MeshLAN.host[0].pingApp[11] "ping out-of-order rate (%)" 0
scalar MeshLAN.host[0].pingApp[11] pingRxSeq:count 287
attr interpolationmode none
attr title "ping rx seq, count"
scalar MeshLAN.host[0].pingApp[11] pingTxSeq:count 288
attr interpolationmode none
attr title "ping tx seq, count"
scalar MeshLAN.host[0].pingApp[11] numOutOfOrderArrivals:last nan
attr interpolationmode none
attr title "ping out-of-order arrivals, last"
scalar MeshLAN.host[0].pingApp[11] numLost:last nan
attr interpolationmode none
attr title "pings lost, last"
scalar MeshLAN.host[0].pingApp[11] rtt:mean 0.0049799928252817
attr interpolationmode none
attr title "ping round-trip time, mean"
attr unit s
scalar MeshLAN.host[0].pingApp[12] "Pings sent" 378
scalar MeshLAN.host[0].pingApp[12] "ping loss rate (%)" 0
scalar MeshLAN.host[0].pingApp[12] "ping out-of-order rate (%)" 0
scalar MeshLAN.host[0].pingApp[12] pingRxSeq:count 284
attr interpolationmode none
attr title "ping rx seq, count"
scalar MeshLAN.host[0].pingApp[12] pingTxSeq:count 284
attr interpolationmode none
attr title "ping tx seq, count"
scalar MeshLAN.host[0].pingApp[12] numOutOfOrderArrivals:last nan
attr interpolationmode none
attr title "ping out-of-order arrivals, last"
scalar MeshLAN.host[0].pingApp[12] numLost:last nan
attr interpolationmode none
attr title "pings lost, last"
scalar MeshLAN.host[0].pingApp[12] rtt:mean 0.0055464544472544
attr interpolationmode none
attr title "ping round-trip time, mean"
attr unit s
scalar MeshLAN.host[0].pingApp[13] "Pings sent" 393
scalar MeshLAN.host[0].pingApp[13] "ping loss rate (%)" 0
scalar MeshLAN.host[0].pingApp[13] "ping out-of-order rate (%)" 0.25445292620865
scalar MeshLAN.host[0].pingApp[13] pingRxSeq:count 300
attr interpolationmode none
attr title "ping rx seq, count"
scalar MeshLAN.host[0].pingApp[13] pingTxSeq:count 300
attr interpolationmode none
attr title "ping tx seq, count"
scalar MeshLAN.host[0].pingApp[13] numOutOfOrderArrivals:last nan
attr interpolationmode none
attr title "ping out-of-order arrivals, last"
scalar MeshLAN.host[0].pingApp[13] numLost:last nan
attr interpolationmode none
attr title "pings lost, last"
scalar MeshLAN.host[0].pingApp[13] rtt:mean 0.0044546358412188
attr interpolationmode none
attr title "ping round-trip time, mean"
attr unit s
scalar MeshLAN.host[0].pingApp[14] "Pings sent" 383
scalar MeshLAN.host[0].pingApp[14] "ping loss rate (%)" 0.26109660574413
scalar MeshLAN.host[0].pingApp[14] "ping out-of-order rate (%)" 0.26109660574413
scalar MeshLAN.host[0].pingApp[14] pingRxSeq:count 287
attr interpolationmode none
attr title "ping rx seq, count"
scalar MeshLAN.host[0].pingApp[14] pingTxSeq:count 287
attr interpolationmode none
attr title "ping tx seq, count"
scalar MeshLAN.host[0].pingApp[14] numOutOfOrderArrivals:last 1
attr interpolationmode none
attr title "ping out-of-order arrivals, last"
scalar MeshLAN.host[0].pingApp[14] numLost:last 1
attr interpolationmode none
attr title "pings lost, last"
scalar MeshLAN.host[0].pingApp[14] rtt:mean 0.0050520343345211
attr interpolationmode none
attr title "ping round-trip time, mean"
attr unit s
scalar MeshLAN.host[0].pingApp[15] "Pings sent" 370
scalar MeshLAN.host[0].pingApp[15] "ping loss rate (%)" 0
scalar MeshLAN.host[0].pingApp[15] "ping out-of-order rate (%)" 0
scalar MeshLAN.host[0].pingApp[15] pingRxSeq:count 282
attr interpolationmode none
attr title "ping rx seq, count"
scalar MeshLAN.host[0].pingApp[15] pingTxSeq:count 282
attr interpolationmode none
attr title "ping tx seq, count"
scalar MeshLAN.host[0].pingApp[15] numOutOfOrderArrivals:last nan
attr interpolationmode none
attr title "ping out-of-order arrivals, last"
scalar MeshLAN.host[0].pingApp[15] numLost:last nan
attr interpolationmode none
attr title "pings lost, last"
scalar MeshLAN.host[0].pingApp[15] rtt:mean 0.003940093408723
attr interpolationmode none
attr title "ping round-trip time, mean"
attr unit s
scalar MeshLAN.host[0].pingApp[16] "Pings sent" 390
scalar MeshLAN.host[0].pingApp[16] "ping loss rate (%)" 0.25641025641026
scalar MeshLAN.host[0].pingApp[16] "ping out-of-order rate (%)" 0.25641025641026
scalar MeshLAN.host[0].pingApp[16] pingRxSeq:count 293
attr interpolationmode none
attr title "ping rx seq, count"
scalar MeshLAN.host[0].pingApp[16] pingTxSeq:count 293
attr interpolationmode none
attr title "ping tx seq, count"
scalar MeshLAN.host[0].pingApp[16] numOutOfOrderArrivals:last 1
attr interpolationmode none
attr title "ping out-of-order arrivals, last"
scalar MeshLAN.host[0].pingApp[16] numLost:last 1
attr interpolationmode none
attr title "pings lost, last"
scalar MeshLAN.host[0].pingApp[16] rtt:mean 0.0047216893752257
attr interpolationmode none
attr title "ping round-trip time, mean"
attr unit s
scalar MeshLAN.host[0].pingApp[17] "Pings sent" 398
scalar MeshLAN.host[0].pingApp[17] "ping loss rate (%)" 0.25125628140704
scalar MeshLAN.host[0].pingApp[17] "ping out-of-order rate (%)" 0
scalar MeshLAN.host[0].pingApp[17] pingRxSeq:count 302
attr interpolationmode none
attr title "ping rx seq, count"
scalar MeshLAN.host[0].pingApp[17] pingTxSeq:count 303
attr interpolationmode none
attr title "ping tx seq, count"
scalar MeshLAN.host[0].pingApp[17] numOutOfOrderArrivals:last nan
attr interpolationmode none
attr title "ping out-of-order arrivals, last"
scalar MeshLAN.host[0].pingApp[17] numLost:last nan
attr interpolationmode none
attr title "pings lost, last"
scalar MeshLAN.host[0].pingApp[17] rtt:mean 0.0047688778542027
attr interpolationmode none
attr title "ping round-trip time, mean"
attr unit s
scalar MeshLAN.host[0].pingApp[18] "Pings sent" 391
scalar MeshLAN.host[0].pingApp[18] "ping loss rate (%)" 0
scalar MeshLAN.host[0].pingApp[18] "ping out-of-order rate (%)" 0.25575447570332
scalar MeshLAN.host[0].pingApp[18] pingRxSeq:count 295
attr interpolationmode none
attr title "ping rx seq, count"
scalar MeshLAN.host[0].pingApp[18] pingTxSeq:count 295
attr interpolationmode none
attr title "ping tx seq, count"
scalar MeshLAN.host[0].pingApp[18] numOutOfOrderArrivals:last nan
attr interpolationmode none
attr title "ping out-of-order arrivals, last"
scalar MeshLAN.host[0].pingApp[18] numLost:last nan
attr interpolationmode none
attr title "pings lost, last"
scalar MeshLAN.host[0].pingApp[18] rtt:mean 0.0019475350847192
attr interpolationmode none
attr title "ping round-trip time, mean"
attr unit s
scalar MeshLAN.host[0].pingApp[19] "Pings sent" 387
scalar MeshLAN.host[0].pingApp[19] "ping loss rate (%)" 0
scalar MeshLAN.host[0].pingApp[19] "ping out-of-order rate (%)" 0.25839793281654
scalar MeshLAN.host[0].pingApp[19] pingRxSeq:count 289
attr interpolationmode none
attr title "ping rx seq, count"
scalar MeshLAN.host[0].pingApp[19] pingTxSeq:count 289
attr interpolationmode none
attr title "ping tx seq, count"
scalar MeshLAN.host[0].pingApp[19] numOutOfOrderArrivals:last 1
attr interpolationmode none
attr title "ping out-of-order arrivals, last"
scalar MeshLAN.host[0].pingApp[19] numLost:last 0
attr interpolationmode none
attr title "pings lost, last"
scalar MeshLAN.host[0].pingApp[19] rtt:mean 0.002624218137528
attr interpolationmode none
attr title "ping round-trip time, mean"
attr unit s
scalar MeshLAN.host[0].pingApp[20] "Pings sent" 383
scalar MeshLAN.host[0].pingApp[20] "ping loss rate (%)" 0.26109660574413
scalar MeshLAN.host[0].pingApp[20] "ping out-of-order rate (%)" 0
scalar MeshLAN.host[0].pingApp[20] pingRxSeq:count 286
attr interpolationmode none
attr title "ping rx seq, count"
scalar MeshLAN.host[0].pingApp[20] pingTxSeq:count 286
attr interpolationmode none
attr title "ping tx seq, count"
scalar MeshLAN.host[0].pingApp[20] numOutOfOrderArrivals:last nan
attr interpolationmode none
attr title "ping out-of-order arrivals, last"
scalar MeshLAN.host[0].pingApp[20] numLost:last nan
attr interpolationmode none
attr title "pings lost, last"
scalar MeshLAN.host[0].pingApp[20] rtt:mean 0.0037535957731158
attr interpolationmode none
attr title "ping round-trip time, mean"
attr unit s
scalar MeshLAN.host[0].pingApp[21] "Pings sent" 384
scalar MeshLAN.host[0].pingApp[21] "ping loss rate (%)" 0
scalar MeshLAN.host[0].pingApp[21] "ping out-of-order rate (%)" 0
scalar MeshLAN.host[0].pingApp[21] pingRxSeq:count 285
attr interpolationmode none
attr title "ping rx seq, count"
scalar MeshLAN.host[0].pingApp[21] pingTxSeq:count 285
attr interpolationmode none
attr title "ping tx seq, count"
scalar MeshLAN.host[0].pingApp[21] numOutOfOrderArrivals:last nan
attr interpolationmode none
attr title "ping out-of-order arrivals, last"
scalar MeshLAN.host[0].pingApp[21] numLost:last nan
attr interpolationmode none
attr title "pings lost, last"
scalar MeshLAN.host[0].pingApp[21] rtt:mean 0.0045918900141696
attr interpolationmode none
attr title "ping round-trip time, mean"
attr unit s
scalar MeshLAN.host[0].pingApp[22] "Pings sent" 388
scalar MeshLAN.host[0].pingApp[22] "ping loss rate (%)" 0
scalar MeshLAN.host[0].pingApp[22] "ping out-of-order rate (%)" 0
scalar MeshLAN.host[0].pingApp[22] pingRxSeq:count 296
attr interpolationmode none
attr title "ping rx seq, count"
scalar MeshLAN.host[0].pingApp[22] pingTxSeq:count 296
attr interpolationmode none
attr title "ping tx seq, count"
scalar MeshLAN.host[0].pingApp[22] numOutOfOrderArrivals:last nan
attr interpolationmode none
attr title "ping out-of-order arrivals, last"
scalar MeshLAN.host[0].pingApp[22] numLost:last nan
attr interpolationmode none
attr title "pings lost, last"
scalar MeshLAN.host[0].pingApp[22] rtt:mean 0.0027319679080068
attr interpolationmode none
attr title "ping round-trip time, mean"
attr unit s
scalar MeshLAN.host[0].pingApp[23] "Pings sent" 366
scalar MeshLAN.host[0].pingApp[23] "ping loss rate (%)" 0.27322404371585
scalar MeshLAN.host[0].pingApp[23] "ping out-of-order rate (%)" 0
scalar MeshLAN.host[0].pingApp[23] pingRxSeq:count 277
attr interpolationmode none
attr title "ping rx seq, count"
scalar MeshLAN.host[0].pingApp[23] pingTxSeq:count 276
attr interpolationmode none
attr title "ping tx seq, count"
scalar MeshLAN.host[0].pingApp[23] numOutOfOrderArrivals:last nan
attr interpolationmode none
attr title "ping out-of-order arrivals, last"
scalar MeshLAN.host[0].pingApp[23] numLost:last nan
attr interpolationmode none
attr title "pings lost, last"
scalar MeshLAN.host[0].pingApp[23] rtt:mean 0.0050028099126204
attr interpolationmode none
attr title "ping round-trip time, mean"
attr unit s
scalar MeshLAN.host[0].pingApp[24] "Pings sent" 380
scalar MeshLAN.host[0].pingApp[24] "ping loss rate (%)" 0
scalar MeshLAN.host[0].pingApp[24] "ping out-of-order rate (%)" 0
scalar MeshLAN.host[0].pingApp[24] pingRxSeq:count 289
attr interpolationmode none
attr title "ping rx seq, count"
scalar MeshLAN.host[0].pingApp[24] pingTxSeq:count 289
attr interpolationmode none
attr title "ping tx seq, count"
scalar MeshLAN.host[0].pingApp[24] numOutOfOrderArrivals:last nan
attr interpolationmode none
attr title "ping out-of-order arrivals, last"
scalar MeshLAN.host[0].pingApp[24] numLost:last nan
attr interpolationmode none
attr title "pings lost, last"
scalar MeshLAN.host[0].pingApp[24] rtt:mean 0.0035421785447972
attr interpolationmode none
attr title "ping round-trip time, mean"
attr unit s
scalar MeshLAN.host[0].pingApp[25] "Pings sent" 379
scalar MeshLAN.host[0].pingApp[25] "ping loss rate (%)" 0.26385224274406
scalar MeshLAN.host[0].pingApp[25] "ping out-of-order rate (%)" 0
scalar MeshLAN.host[0].pingApp[25] pingRxSeq:count 287
attr interpolationmode none
attr title "ping rx seq, count"
scalar MeshLAN.host[0].pingApp[25] pingTxSeq:count 287
attr interpolationmode none
attr title "ping tx seq, count"
scalar MeshLAN.host[0].pingApp[25] numOutOfOrderArrivals:last nan
attr interpolationmode none
attr title "ping out-of-order arrivals, last"
scalar MeshLAN.host[0].pingApp[25] numLost:last nan
attr interpolationmode none
attr title "pings lost, last"
scalar MeshLAN.host[0].pingApp[25] rtt:mean 0.0055901540047692
attr interpolationmode none
attr title "ping round-trip time, mean"
attr unit s
scalar MeshLAN.host[0].pingApp[26] "Pings sent" 389
scalar MeshLAN.host[0].pingApp[26] "ping loss rate (%)" 0.77120822622108
scalar MeshLAN.host[0].pingApp[26] "ping out-of-order rate (%)" 0.25706940874036
scalar MeshLAN.host[0].pingApp[26] pingRxSeq:count 293
attr interpolationmode none
attr title "ping rx seq, count"
scalar MeshLAN.host[0].pingApp[26] pingTxSeq:count 294
attr interpolationmode none
attr title "ping tx seq, count"
scalar MeshLAN.host[0].pingApp[26] numOutOfOrderArrivals:last 1
attr interpolationmode none
attr title "ping out-of-order arrivals, last"
scalar MeshLAN.host[0].pingApp[26] numLost:last 2
attr interpolationmode none
attr title "pings lost, last"
scalar MeshLAN.host[0].pingApp[26] rtt:mean 0.0040750321318241
attr interpolationmode none
attr title "ping round-trip time, mean"
attr unit s
scalar MeshLAN.host[0].pingApp[27] "Pings sent" 386
scalar MeshLAN.host[0].pingApp[27] "ping loss rate (%)" 0
scalar MeshLAN.host[0].pingApp[27] "ping out-of-order rate (%)" 0
scalar MeshLAN.host[0].pingApp[27] pingRxSeq:count 288
attr interpolationmode none
attr title "ping rx seq, count"
scalar MeshLAN.host[0].pingApp[27] pingTxSeq:count 288
attr interpolationmode none
attr title "ping tx seq, count"
scalar MeshLAN.host[0].pingApp[27] numOutOfOrderArrivals:last nan
attr interpolationmode none
attr title "ping out-of-order arrivals, last"
scalar MeshLAN.host[0].pingApp[27] numLost:last nan
attr interpolationmode none
attr title "pings lost, last"
scalar MeshLAN.host[0].pingApp[27] rtt:mean 0.0040791672405176
attr interpolationmode none
attr title "ping round-trip time, mean"
attr unit s
scalar MeshLAN.host[1].networkLayer.arp sentReply:count 0
attr title "ARP replies sent, count"
scalar MeshLAN.host[1].networkLayer.arp sentReq:count 0
attr title "ARP request sent, count"
scalar MeshLAN.host[1].networkLayer.arp failedARPResolution:count 0
attr title "ARP failed resolutions, count"
scalar MeshLAN.host[1].networkLayer.arp completedARPResolution:count 0
attr title "ARP completed resolutions, count"
scalar MeshLAN.host[1].networkLayer.arp initiatedARPResolution:count 0
attr title "ARP initiated resolutions, count"
scalar MeshLAN.host[1].lo0.lo droppedPkBitError:count 0
attr interpolationmode none
attr source dropPkBitError
attr title "packets dropped/bit error, count"
scalar MeshLAN.host[1].lo0.lo droppedPkBitError:sum(packetBytes) 0
attr interpolationmode none
attr source dropPkBitError
attr title "packets dropped/bit error, sum(packetBytes)"
scalar MeshLAN.host[1].lo0.lo rcvdPkFromHL:count 276
attr interpolationmode none
attr source packetReceivedFromUpper
attr title "packets received from higher layer, count"
scalar MeshLAN.host[1].lo0.lo rcvdPkFromHL:sum(packetBytes) 174514
attr interpolationmode none
attr source packetReceivedFromUpper
attr title "packets received from higher layer, sum(packetBytes)"
scalar MeshLAN.host[1].lo0.lo passedUpPk:count 276
attr interpolationmode none
attr source packetSentToUpper
attr title "packets passed to higher layer, count"
scalar MeshLAN.host[1].lo0.lo passedUpPk:sum(packetBytes) 174514
attr interpolationmode none
attr source packetSentToUpper
attr title "packets passed to higher layer, sum(packetBytes)"
scalar MeshLAN.host[1].eth[0].queue.pauseQueue queueLength:max nan
attr interpolationmode sample-hold
attr title "queue length, max"
scalar MeshLAN.host[1].eth[0].queue.pauseQueue queueLength:timeavg nan
attr interpolationmode sample-hold
attr title "queue length, timeavg"
statistic MeshLAN.host[1].eth[0].queue.pauseQueue queueingTime:histogram
field count 0
field mean nan
field stddev nan
field min nan
field max nan
field sum 0
field sqrsum 0
attr interpolationmode none
attr title "queueing time, histogram"
bin	-inf	0
bin	-0.5	0
bin	-0.46666666666667	0
bin	-0.43333333333333	0
bin	-0.4	0
bin	-0.36666666666667	0
bin	-0.33333333333333	0
bin	-0.3	0
bin	-0.26666666666667	0
bin	-0.23333333333333	0
bin	-0.2	0
bin	-0.16666666666667	0
bin	-0.13333333333333	0
bin	-0.1	0
bin	-0.066666666666667	0
bin	-0.033333333333333	0
bin	0	0
bin	0.033333333333333	0
bin	0.066666666666667	0
bin	0.1	0
bin	0.13333333333333	0
bin	0.16666666666667	0
bin	0.2	0
bin	0.23333333333333	0
bin	0.26666666666667	0
bin	0.3	0
bin	0.33333333333333	0
bin	0.36666666666667	0
bin	0.4	0
bin	0.43333333333333	0
bin	0.46666666666667	0
bin	0.5	0
scalar MeshLAN.host[1].eth[0].queue.pauseQueue dropPk:count 0
attr interpolationmode none
attr source dropPkByQueue
attr title "dropped packets, count"
scalar MeshLAN.host[1].eth[0].queue.pauseQueue dropPk:sum(packetBytes) 0
attr interpolationmode none
attr source dropPkByQueue
attr title "dropped packets, sum(packetBytes)"
scalar MeshLAN.host[1].eth[0].queue.pauseQueue rcvdPk:count 0
attr interpolationmode none
attr title "received packets, count"
scalar MeshLAN.host[1].eth[0].queue.pauseQueue rcvdPk:sum(packetBytes) 0
attr interpolationmode none
attr title "received packets, sum(packetBytes)"
scalar MeshLAN.host[1].eth[0].queue.dataQueue queueLength:max 10
attr interpolationmode sample-hold
attr title "queue length, max"
scalar MeshLAN.host[1].eth[0].queue.dataQueue queueLength:timeavg 0.58322278870121
attr interpolationmode sample-hold
attr title "queue length, timeavg"
statistic MeshLAN.host[1].eth[0].queue.dataQueue queueingTime:histogram
field count 13044
field mean 0.00067064976536388
field stddev 0.00073898110338954
field min 0
field max 0.005305936729
field sum 8.7479555394064
field sqrsum 0.012989506257145
attr interpolationmode none
attr title "queueing time, histogram"
bin	-inf	0
bin	-0.001021937619	0
bin	-0.0008856792698	0
bin	-0.0007494209206	0
bin	-0.0006131625714	0
bin	-0.0004769042222	0
bin	-0.000340645873	0
bin	-0.0002043875238	0
bin	-6.81291746e-005	4858
bin	6.81291746e-005	411
bin	0.0002043875238	421
bin	0.000340645873	432
bin	0.0004769042222	332
bin	0.0006131625714	326
bin	0.0007494209206	2773
bin	0.0008856792698	520
bin	0.001021937619	457
bin	0.0011581959682	426
bin	0.0012944543174	324
bin	0.0014307126666	275
bin	0.0015669710158	261
bin	0.001703229365	228
bin	0.0018394877142	190
bin	0.0019757460634	172
bin	0.0021120044126	113
bin	0.0022482627618	106
bin	0.002384521111	90
bin	0.0025207794602	55
bin	0.0026570378094	60
bin	0.0027932961586	39
bin	0.0029295545078	28
bin	0.003065812857	147
scalar MeshLAN.host[1].eth[0].queue.dataQueue dropPk:count 0
attr interpolationmode none
attr source dropPkByQueue
attr title "dropped packets, count"
scalar MeshLAN.host[1].eth[0].queue.dataQueue dropPk:sum(packetBytes) 0
attr interpolationmode none
attr source dropPkByQueue
attr title "dropped packets, sum(packetBytes)"
scalar MeshLAN.host[1].eth[0].queue.dataQueue rcvdPk:count 13044
attr interpolationmode none
attr title "received packets, count"
scalar MeshLAN.host[1].eth[0].queue.dataQueue rcvdPk:sum(packetBytes) 8542039
attr interpolationmode none
attr title "received packets, sum(packetBytes)"
scalar MeshLAN.host[1].eth[0].mac "simulated time" 20
scalar MeshLAN.host[1].eth[0].mac full-duplex 1
scalar MeshLAN.host[1].eth[0].mac "frames/sec sent" 864.15
scalar MeshLAN.host[1].eth[0].mac "frames/sec rcvd" 863.9
scalar MeshLAN.host[1].eth[0].mac "bits/sec sent" 4528575.2
scalar MeshLAN.host[1].eth[0].mac "bits/sec rcvd" 4527504
scalar MeshLAN.host[1].eth[0].mac "rx channel idle (%)" 54.172064
scalar MeshLAN.host[1].eth[0].mac "rx channel utilization (%)" 45.827936
scalar MeshLAN.host[1].eth[0].mac rxPkFromHL:count 13044
attr interpolationmode none
attr source rxPkFromHL
attr title "packet bytes from higher layer, count"
scalar MeshLAN.host[1].eth[0].mac rxPkFromHL:sum(packetBytes) 8542039
attr interpolationmode none
attr source rxPkFromHL
attr title "packet bytes from higher layer, sum(packetBytes)"
scalar MeshLAN.host[1].eth[0].mac rxPausePkUnits:count 0
attr interpolationmode none
attr title "pause units received, count"
scalar MeshLAN.host[1].eth[0].mac rxPausePkUnits:sum 0
attr interpolationmode none
attr title "pause units received, sum"
scalar MeshLAN.host[1].eth[0].mac txPausePkUnits:count 0
attr interpolationmode none
attr title "pause units sent, count"
scalar MeshLAN.host[1].eth[0].mac txPausePkUnits:sum 0
attr interpolationmode none
attr title "pause units sent, sum"
scalar MeshLAN.host[1].eth[0].mac txPk:count 13044
attr interpolationmode none
attr source txPk
attr title "packets transmitted, count"
scalar MeshLAN.host[1].eth[0].mac txPk:sum(packetBytes) 8542039
attr interpolationmode none
attr source txPk
attr title "packets transmitted, sum(packetBytes)"
scalar MeshLAN.host[1].eth[0].mac droppedPkNotForUs:count 0
attr interpolationmode none
attr source dropPkNotForUs
attr title "packets dropped/not for us, count"
scalar MeshLAN.host[1].eth[0].mac droppedPkNotForUs:sum(packetBytes) 0
attr interpolationmode none
attr source dropPkNotForUs
attr title "packets dropped/not for us, sum(packetBytes)"
scalar MeshLAN.host[1].eth[0].mac droppedPkBitError:count 0
attr interpolationmode none
attr source dropPkBitError
attr title "packets dropped/bit error, count"
scalar MeshLAN.host[1].eth[0].mac droppedPkBitError:sum(packetBytes) 0
attr interpolationmode none
attr source dropPkBitError
attr title "packets dropped/bit error, sum(packetBytes)"
scalar MeshLAN.host[1].eth[0].mac droppedPkIfaceDown:count 0
attr interpolationmode none
attr source dropPkIfaceDown
attr title "packets dropped/interface down, count"
scalar MeshLAN.host[1].eth[0].mac droppedPkIfaceDown:sum(packetBytes) 0
attr interpolationmode none
attr source dropPkIfaceDown
attr title "packets dropped/interface down, sum(packetBytes)"
scalar MeshLAN.host[1].eth[0].mac rxPkOk:count 13041
attr interpolationmode none
attr source rxPkOk
attr title "packets received OK, count"
scalar MeshLAN.host[1].eth[0].mac rxPkOk:sum(packetBytes) 8540611
attr interpolationmode none
attr source rxPkOk
attr title "packets received OK, sum(packetBytes)"
scalar MeshLAN.host[1].eth[0].mac passedUpPk:count 13041
attr interpolationmode none
attr source packetSentToUpper
attr title "packets passed to higher layer, count"
scalar MeshLAN.host[1].eth[0].mac passedUpPk:sum(packetBytes) 8540611
attr interpolationmode none
attr source packetSentToUpper
attr title "packets passed to higher layer, sum(packetBytes)"
scalar MeshLAN.host[1].eth[0].encap pauseSent:count 0
attr title "pause sent, count"
scalar MeshLAN.host[1].eth[0].encap pauseSent:sum 0
attr title "pause sent, sum"
scalar MeshLAN.host[1].eth[0].encap decapPk:count 13041
attr interpolationmode none
attr source decapPk
attr title "packets decapsulated, count"
scalar MeshLAN.host[1].eth[0].encap decapPk:sum(packetBytes) 8304281
attr interpolationmode none
attr source decapPk
attr title "packets decapsulated, sum(packetBytes)"
scalar MeshLAN.host[1].eth[0].encap encapPk:count 13044
attr interpolationmode none
attr source encapPk
attr title "packets encapsulated, count"
scalar MeshLAN.host[1].eth[0].encap encapPk:sum(packetBytes) 8305655
attr interpolationmode none
attr source encapPk
attr title "packets encapsulated, sum(packetBytes)"
scalar MeshLAN.host[1].pingApp[0] "Pings sent" 377
scalar MeshLAN.host[1].pingApp[0] "ping loss rate (%)" 0
scalar MeshLAN.host[1].pingApp[0] "ping out-of-order rate (%)" 0
scalar MeshLAN.host[1].pingApp[0] pingRxSeq:count 283
attr interpolationmode none
attr title "ping rx seq, count"
scalar MeshLAN.host[1].pingApp[0] pingTxSeq:count 283
attr interpolationmode none
attr title "ping tx seq, count"
scalar MeshLAN.host[1].pingApp[0] numOutOfOrderArrivals:last nan
attr interpolationmode none
attr title "ping out-of-order arrivals, last"
scalar MeshLAN.host[1].pingApp[0] numLost:last nan
attr interpolationmode none
attr title "pings lost, last"
scalar MeshLAN.host[1].pingApp[0] rtt:mean 0.0047922329301331
attr interpolationmode none
attr title "ping round-trip time, mean"
attr unit s
scalar MeshLAN.host[1].pingApp[1] "Pings sent" 396
scalar MeshLAN.host[1].pingApp[1] "ping loss rate (%)" 0
scalar MeshLAN.host[1].pingApp[1] "ping out-of-order rate (%)" 0
scalar MeshLAN.host[1].pingApp[1] pingRxSeq:count 299
attr interpolationmode none
attr title "ping rx seq, count"
scalar MeshLAN.host[1].pingApp[1] pingTxSeq:count 299
attr interpolationmode none
attr title "ping tx seq, count"
scalar MeshLAN.host[1].pingApp[1] numOutOfOrderArrivals:last nan
attr interpolationmode none
attr title "ping out-of-order arrivals, last"
scalar MeshLAN.host[1].pingApp[1] numLost:last nan
attr interpolationmode none
attr title "pings lost, last"
scalar MeshLAN.host[1].pingApp[1] rtt:mean 0.0043973542216195
attr interpolationmode none
attr title "ping round-trip time, mean"
attr unit s
scalar MeshLAN.host[1].pingApp[2] "Pings sent" 396
scalar MeshLAN.host[1].pingApp[2] "ping loss rate (%)" 0
scalar MeshLAN.host[1].pingApp[2] "ping out-of-order rate (%)" 0
scalar MeshLAN.host[1].pingApp[2] pingRxSeq:count 293
attr interpolationmode none
attr title "ping rx seq, count"
scalar MeshLAN.host[1].pingApp[2] pingTxSeq:count 293
attr interpolationmode none
attr title "ping tx seq, count"
scalar MeshLAN.host[1].pingApp[2] numOutOfOrderArrivals:last nan
attr interpolationmode none
attr title "ping out-of-order arrivals, last"
scalar MeshLAN.host[1].pingApp[2] numLost:last nan
attr interpolationmode none
attr title "pings lost, last"
scalar MeshLAN.host[1].pingApp[2] rtt:mean 0.0050369060558408
attr interpolationmode none
attr title "ping round-trip time, mean"
attr unit s
scalar MeshLAN.host[1].pingApp[3] "Pings sent" 368
scalar MeshLAN.host[1].pingApp[3] "ping loss rate (%)" 0
scalar MeshLAN.host[1].pingApp[3] "ping out-of-order rate (%)" 0.27173913043478
scalar MeshLAN.host[1].pingApp[3] pingRxSeq:count 289
attr interpolationmode none
attr title "ping rx seq, count"
scalar MeshLAN.host[1].pingApp[3] pingTxSeq:count 289
attr interpolationmode none
attr title "ping tx seq, count"
scalar MeshLAN.host[1].pingApp[3] numOutOfOrderArrivals:last 1
attr interpolationmode none
attr title "ping out-of-order arrivals, last"
scalar MeshLAN.host[1].pingApp[3] numLost:last 0
attr interpolationmode none
attr title "pings lost, last"
scalar MeshLAN.host[1].pingApp[3] rtt:mean 0.0027591672588646
attr interpolationmode none
attr title "ping round-trip time, mean"
attr unit s
scalar MeshLAN.host[1].pingApp[4] "Pings sent" 379
scalar MeshLAN.host[1].pingApp[4] "ping loss rate (%)" 0
scalar MeshLAN.host[1].pingApp[4] "ping out-of-order rate (%)" 0
scalar MeshLAN.host[1].pingApp[4] pingRxSeq:count 292
attr interpolationmode none
attr title "ping rx seq, count"
scalar MeshLAN.host[1].pingApp[4] pingTxSeq:count 292
attr interpolationmode none
attr title "ping tx seq, count"
scalar MeshLAN.host[1].pingApp[4] numOutOfOrderArrivals:last nan
attr interpolationmode none
attr title "ping out-of-order arrivals, last"
scalar MeshLAN.host[1].pingApp[4] numLost:last nan
attr interpolationmode none
attr title "pings lost, last"
scalar MeshLAN.host[1].pingApp[4] rtt:mean 0.0052829191522076
attr interpolationmode none
attr title "ping round-trip time, mean"
attr unit s
scalar MeshLAN.host[1].pingApp[5] "Pings sent" 386
scalar MeshLAN.host[1].pingApp[5] "ping loss rate (%)" 0
scalar MeshLAN.host[1].pingApp[5] "ping out-of-order rate (%)" 0.25906735751295
scalar MeshLAN.host[1].pingApp[5] pingRxSeq:count 292
attr interpolationmode none
attr title "ping rx seq, count"
scalar MeshLAN.host[1].pingApp[5] pingTxSeq:count 292
attr interpolationmode none
attr title "ping tx seq, count"
scalar MeshLAN.host[1].pingApp[5] numOutOfOrderArrivals:last 1
attr interpolationmode none
attr title "ping out-of-order arrivals, last"
scalar MeshLAN.host[1].pingApp[5] numLost:last 0
attr interpolationmode none
attr title "pings lost, last"
scalar MeshLAN.host[1].pingApp[5] rtt:mean 0.0045053038641138
attr interpolationmode none
attr title "ping round-trip time, mean"
attr unit s
scalar MeshLAN.host[1].pingApp[6] "Pings sent" 374
scalar MeshLAN.host[1].pingApp[6] "ping loss rate (%)" 0
scalar MeshLAN.host[1].pingApp[6] "ping out-of-order rate (%)" 0
scalar MeshLAN.host[1].pingApp[6] pingRxSeq:count 285
attr interpolationmode none
attr title "ping rx seq, count"
scalar MeshLAN.host[1].pingApp[6] pingTxSeq:count 285
attr interpolationmode none
attr title "ping tx seq, count"
scalar MeshLAN.host[1].pingApp[6] numOutOfOrderArrivals:last nan
attr interpolationmode none
attr title "ping out-of-order arrivals, last"
scalar MeshLAN.host[1].pingApp[6] numLost:last nan
attr interpolationmode none
attr title "pings lost, last"
scalar MeshLAN.host[1].pingApp[6] rtt:mean 0.005176452015947
attr interpolationmode none
attr title "ping round-trip time, mean"
attr unit s
scalar MeshLAN.host[1].pingApp[7] "Pings sent" 383
scalar MeshLAN.host[1].pingApp[7] "ping loss rate (%)" 0
scalar MeshLAN.host[1].pingApp[7] "ping out-of-order rate (%)" 0
scalar MeshLAN.host[1].pingApp[7] pingRxSeq:count 285
attr interpolationmode none
attr title "ping rx seq, count"
scalar MeshLAN.host[1].pingApp[7] pingTxSeq:count 285
attr interpolationmode none
attr title "ping tx seq, count"
scalar MeshLAN.host[1].pingApp[7] numOutOfOrderArrivals:last nan
attr interpolationmode none
attr title "ping out-of-order arrivals, last"
scalar MeshLAN.host[1].pingApp[7] numLost:last nan
attr interpolationmode none
attr title "pings lost, last"
scalar MeshLAN.host[1].pingApp[7] rtt:mean 0.0045964257936833
attr interpolationmode none
attr title "ping round-trip time, mean"
attr unit s
scalar MeshLAN.host[1].pingApp[8] "Pings sent" 387
scalar MeshLAN.host[1].pingApp[8] "ping loss rate (%)" 0
scalar MeshLAN.host[1].pingApp[8] "ping out-of-order rate (%)" 0
scalar MeshLAN.host[1].pingApp[8] pingRxSeq:count 290
attr interpolationmode none
attr title "ping rx seq, count"
scalar MeshLAN.host[1].pingApp[8] pingTxSeq:count 290
attr interpolationmode none
attr title "ping tx seq, count"
scalar MeshLAN.host[1].pingApp[8] numOutOfOrderArrivals:last nan
attr interpolationmode none
attr title "ping out-of-order arrivals, last"
scalar MeshLAN.host[1].pingApp[8] numLost:last nan
attr interpolationmode none
attr title "pings lost, last"
scalar MeshLAN.host[1].pingApp[8] rtt:mean 0.002962034609344
attr interpolationmode none
attr title "ping round-trip time, mean"
attr unit s
scalar MeshLAN.host[1].pingApp[9] "Pings sent" 394
scalar MeshLAN.host[1].pingApp[9] "ping loss rate (%)" 0.25380710659898
scalar MeshLAN.host[1].pingApp[9] "ping out-of-order rate (%)" 0
scalar MeshLAN.host[1].pingApp[9] pingRxSeq:count 294
attr interpolationmode none
attr title "ping rx seq, count"
scalar MeshLAN.host[1].pingApp[9] pingTxSeq:count 295
attr interpolationmode none
attr title "ping tx seq, count"
scalar MeshLAN.host[1].pingApp[9] numOutOfOrderArrivals:last nan
attr interpolationmode none
attr title "ping out-of-order arrivals, last"
scalar MeshLAN.host[1].pingApp[9] numLost:last nan
attr interpolationmode none
attr title "pings lost, last"
scalar MeshLAN.host[1].pingApp[9] rtt:mean 0.0020428100038414
attr interpolationmode none
attr title "ping round-trip time, mean"
attr unit s
scalar MeshLAN.host[1].pingApp[10] "Pings sent" 398
scalar MeshLAN.host[1].pingApp[10] "ping loss rate (%)" 0
scalar MeshLAN.host[1].pingApp[10] "ping out-of-order rate (%)" 0
scalar MeshLAN.host[1].pingApp[10] pingRxSeq:count 309
attr interpolationmode none
attr title "ping rx seq, count"
scalar MeshLAN.host[1].pingApp[10] pingTxSeq:count 309
attr interpolationmode none
attr title "ping tx seq, count"
scalar MeshLAN.host[1].pingApp[10] numOutOfOrderArrivals:last nan
attr interpolationmode none
attr title "ping out-of-order arrivals, last"
scalar MeshLAN.host[1].pingApp[10] numLost:last nan
attr interpolationmode none
attr title "pings lost, last"
scalar MeshLAN.host[1].pingApp[10] rtt:mean 0.0026191140952997
attr interpolationmode none
attr title "ping round-trip time, mean"
attr unit s
scalar MeshLAN.host[1].pingApp[11] "Pings sent" 402
scalar MeshLAN.host[1].pingApp[11] "ping loss rate (%)" 0
scalar MeshLAN.host[1].pingApp[11] "ping out-of-order rate (%)" 0.24875621890547
scalar MeshLAN.host[1].pingApp[11] pingRxSeq:count 299
attr interpolationmode none
attr title "ping rx seq, count"
scalar MeshLAN.host[1].pingApp[11] pingTxSeq:count 299
attr interpolationmode none
attr title "ping tx seq, count"
scalar MeshLAN.host[1].pingApp[11] numOutOfOrderArrivals:last 1
attr interpolationmode none
attr title "ping out-of-order arrivals, last"
scalar MeshLAN.host[1].pingApp[11] numLost:last 0
attr interpolationmode none
attr title "pings lost, last"
scalar MeshLAN.host[1].pingApp[11] rtt:mean 0.0032287208449189
attr interpolationmode none
attr title "ping round-trip time, mean"
attr unit s
scalar MeshLAN.host[1].pingApp[12] "Pings sent" 391
scalar MeshLAN.host[1].pingApp[12] "ping loss rate (%)" 0
scalar MeshLAN.host[1].pingApp[12] "ping out-of-order rate (%)" 0
scalar MeshLAN.host[1].pingApp[12] pingRxSeq:count 296
attr interpolationmode none
attr title "ping rx seq, count"
scalar MeshLAN.host[1].pingApp[12] pingTxSeq:count 296
attr interpolationmode none
attr title "ping tx seq, count"
scalar MeshLAN.host[1].pingApp[12] numOutOfOrderArrivals:last nan
attr interpolationmode none
attr title "ping out-of-order arrivals, last"
scalar MeshLAN.host[1].pingApp[12] numLost:last nan
attr interpolationmode none
attr title "pings lost, last"
scalar MeshLAN.host[1].pingApp[12] rtt:mean 0.0027064159705461
attr interpolationmode none
attr title "ping round-trip time, mean"
attr unit s
scalar MeshLAN.host[1].pingApp[13] "Pings sent" 391
scalar MeshLAN.host[1].pingApp[13] "ping loss rate (%)" 0.25575447570332
scalar MeshLAN.host[1].pingApp[13] "ping out-of-order rate (%)" 0
scalar MeshLAN.host[1].pingApp[13] pingRxSeq:count 291
attr interpolationmode none
attr title "ping rx seq, count"
scalar MeshLAN.host[1].pingApp[13] pingTxSeq:count 291
attr interpolationmode none
attr title "ping tx seq, count"
scalar MeshLAN.host[1].pingApp[13] numOutOfOrderArrivals:last nan
attr interpolationmode none
attr title "ping out-of-order arrivals, last"
scalar MeshLAN.host[1].pingApp[13] numLost:last nan
attr interpolationmode none
attr title "pings lost, last"
scalar MeshLAN.host[1].pingApp[13] rtt:mean 0.0035145488077244
attr interpolationmode none
attr title "ping round-trip time, mean"
attr unit s
scalar MeshLAN.host[1].pingApp[14] "Pings sent" 377
scalar MeshLAN.host[1].pingApp[14] "ping loss rate (%)" 0
scalar MeshLAN.host[1].pingApp[14] "ping out-of-order rate (%)" 0
scalar MeshLAN.host[1].pingApp[14] pingRxSeq:count 294
attr interpolationmode none
attr title "ping rx seq, count"
scalar MeshLAN.host[1].pingApp[14] pingTxSeq:count 294
attr interpolationmode none
attr title "ping tx seq, count"
scalar MeshLAN.host[1].pingApp[14] numOutOfOrderArrivals:last nan
attr interpolationmode none
attr title "ping out-of-order arrivals, last"
scalar MeshLAN.host[1].pingApp[14] numLost:last nan
attr interpolationmode none
attr title "pings lost, last"
scalar MeshLAN.host[1].pingApp[14] rtt:mean 0.0049638587205945
attr interpolationmode none
attr title "ping round-trip time, mean"
attr unit s
scalar MeshLAN.host[1].pingApp[15] "Pings sent" 381
scalar MeshLAN.host[1].pingApp[15] "ping loss rate (%)" 0
scalar MeshLAN.host[1].pingApp[15] "ping out-of-order rate (%)" 0.26246719160105
scalar MeshLAN.host[1].pingApp[15] pingRxSeq:count 293
attr interpolationmode none
attr title "ping rx seq, count"
scalar MeshLAN.host[1].pingApp[15] pingTxSeq:count 293
attr interpolationmode none
attr title "ping tx seq, count"
scalar MeshLAN.host[1].pingApp[15] numOutOfOrderArrivals:last 1
attr interpolationmode none
attr title "ping out-of-order arrivals, last"
scalar MeshLAN.host[1].pingApp[15] numLost:last 0
attr interpolationmode none
attr title "pings lost, last"
scalar MeshLAN.host[1].pingApp[15] rtt:mean 0.0020967180992268
attr interpolationmode none
attr title "ping round-trip time, mean"
attr unit s
scalar MeshLAN.host[1].pingApp[16] "Pings sent" 392
scalar MeshLAN.host[1].pingApp[16] "ping loss rate (%)" 0
scalar MeshLAN.host[1].pingApp[16] "ping out-of-order rate (%)" 0.25510204081633
scalar MeshLAN.host[1].pingApp[16] pingRxSeq:count 300
attr interpolationmode none
attr title "ping rx seq, count"
scalar MeshLAN.host[1].pingApp[16] pingTxSeq:count 300
attr interpolationmode none
attr title "ping tx seq, count"
scalar MeshLAN.host[1].pingApp[16] numOutOfOrderArrivals:last 1
attr interpolationmode none
attr title "ping out-of-order arrivals, last"
scalar MeshLAN.host[1].pingApp[16] numLost:last 0
attr interpolationmode none
attr title "pings lost, last"
scalar MeshLAN.host[1].pingApp[16] rtt:mean 0.0044859360010736
attr interpolationmode none
attr title "ping round-trip time, mean"
attr unit s
scalar MeshLAN.host[1].pingApp[17] "Pings sent" 384
scalar MeshLAN.host[1].pingApp[17] "ping loss rate (%)" 0
scalar MeshLAN.host[1].pingApp[17] "ping out-of-order rate (%)" 0
scalar MeshLAN.host[1].pingApp[17] pingRxSeq:count 285
attr interpolationmode none
attr title "ping rx seq, count"
scalar MeshLAN.host[1].pingApp[17] pingTxSeq:count 285
attr interpolationmode none
attr title "ping tx seq, count"
scalar MeshLAN.host[1].pingApp[17] numOutOfOrderArrivals:last nan
attr interpolationmode none
attr title "ping out-of-order arrivals, last"
scalar MeshLAN.host[1].pingApp[17] numLost:last nan
attr interpolationmode none
attr title "pings lost, last"
scalar MeshLAN.host[1].pingApp[17] rtt:mean 0.0032728678270528
attr interpolationmode none
attr title "ping round-trip time, mean"
attr unit s
scalar MeshLAN.host[1].pingApp[18] "Pings sent" 388
scalar MeshLAN.host[1].pingApp[18] "ping loss rate (%)" 0
scalar MeshLAN.host[1].pingApp[18] "ping out-of-order rate (%)" 0
scalar MeshLAN.host[1].pingApp[18] pingRxSeq:count 291
attr interpolationmode none
attr title "ping rx seq, count"
scalar MeshLAN.host[1].pingApp[18] pingTxSeq:count 291
attr interpolationmode none
attr title "ping tx seq, count"
scalar MeshLAN.host[1].pingApp[18] numOutOfOrderArrivals:last nan
attr interpolationmode none
attr title "ping out-of-order arrivals, last"
scalar MeshLAN.host[1].pingApp[18] numLost:last nan
attr interpolationmode none
attr title "pings lost, last"
scalar MeshLAN.host[1].pingApp[18] rtt:mean 0.0030793629170697
attr interpolationmode none
attr title "ping round-trip time, mean"
attr unit s
scalar MeshLAN.host[1].pingApp[19] "Pings sent" 381
scalar MeshLAN.host[1].pingApp[19] "ping loss rate (%)" 0
scalar MeshLAN.host[1].pingApp[19] "ping out-of-order rate (%)" 0.26246719160105
scalar MeshLAN.host[1].pingApp[19] pingRxSeq:count 292
attr interpolationmode none
attr title "ping rx seq, count"
scalar MeshLAN.host[1].pingApp[19] pingTxSeq:count 292
attr interpolationmode none
attr title "ping tx seq, count"
scalar MeshLAN.host[1].pingApp[19] numOutOfOrderArrivals:last 1
attr interpolationmode none
attr title "ping out-of-order arrivals, last"
scalar MeshLAN.host[1].pingApp[19] numLost:last 0
attr interpolationmode none
attr title "pings lost, last"
scalar MeshLAN.host[1].pingApp[19] rtt:mean 0.0046376223385694
attr interpolationmode none
attr title "ping round-trip time, mean"
attr unit s
scalar MeshLAN.host[1].pingApp[20] "Pings sent" 390
scalar MeshLAN.host[1].pingApp[20] "ping loss rate (%)" 0.25641025641026
scalar MeshLAN.host[1].pingApp[20] "ping out-of-order rate (%)" 0
scalar MeshLAN.host[1].pingApp[20] pingRxSeq:count 291
attr interpolationmode none
attr title "ping rx seq, count"
scalar MeshLAN.host[1].pingApp[20] pingTxSeq:count 292
attr interpolationmode none
attr title "ping tx seq, count"
scalar MeshLAN.host[1].pingApp[20] numOutOfOrderArrivals:last nan
attr interpolationmode none
attr title "ping out-of-order arrivals, last"
scalar MeshLAN.host[1].pingApp[20] numLost:last nan
attr interpolationmode none
attr title "pings lost, last"
scalar MeshLAN.host[1].pingApp[20] rtt:mean 0.0042431561262892
attr interpolationmode none
attr title "ping round-trip time, mean"
attr unit s
scalar MeshLAN.host[1].pingApp[21] "Pings sent" 374
scalar MeshLAN.host[1].pingApp[21] "ping loss rate (%)" 0
scalar MeshLAN.host[1].pingApp[21] "ping out-of-order rate (%)" 0
scalar MeshLAN.host[1].pingApp[21] pingRxSeq:count 276
attr interpolationmode none
attr title "ping rx seq, count"
scalar MeshLAN.host[1].pingApp[21] pingTxSeq:count 276
attr interpolationmode none
attr title "ping tx seq, count"
scalar MeshLAN.host[1].pingApp[21] numOutOfOrderArrivals:last nan
attr interpolationmode none
attr title "ping out-of-order arrivals, last"
scalar MeshLAN.host[1].pingApp[21] numLost:last nan
attr interpolationmode none
attr title "pings lost, last"
scalar MeshLAN.host[1].pingApp[21] rtt:mean 0.0030457470606667
attr interpolationmode none
attr title "ping round-trip time, mean"
attr unit s
scalar MeshLAN.host[1].pingApp[22] "Pings sent" 394
scalar MeshLAN.host[1].pingApp[22] "ping loss rate (%)" 0
scalar MeshLAN.host[1].pingApp[22] "ping out-of-order rate (%)" 0
scalar MeshLAN.host[1].pingApp[22] pingRxSeq:count 294
attr interpolationmode none
attr title "ping rx seq, count"
scalar MeshLAN.host[1].pingApp[22] pingTxSeq:count 294
attr interpolationmode none
attr title "ping tx seq, count"
scalar MeshLAN.host[1].pingApp[22] numOutOfOrderArrivals:last nan
attr interpolationmode none
attr title "ping out-of-order arrivals, last"
scalar MeshLAN.host[1].pingApp[22] numLost:last nan
attr interpolationmode none
attr title "pings lost, last"
scalar MeshLAN.host[1].pingApp[22] rtt:mean 0.0035918331150648
attr interpolationmode none
attr title "ping round-trip time, mean"
attr unit s
scalar MeshLAN.host[1].pingApp[23] "Pings sent" 376
scalar MeshLAN.host[1].pingApp[23] "ping loss rate (%)" 0
scalar MeshLAN.host[1].pingApp[23] "ping out-of-order rate (%)" 0
scalar MeshLAN.host[1].pingApp[23] pingRxSeq:count 280
attr interpolationmode none
attr title "ping rx seq, count"
scalar MeshLAN.host[1].pingApp[23] pingTxSeq:count 280
attr interpolationmode none
attr title "ping tx seq, count"
scalar MeshLAN.host[1].pingApp[23] numOutOfOrderArrivals:last nan
attr interpolationmode none
attr title "ping out-of-order arrivals, last"
scalar MeshLAN.host[1].pingApp[23] numLost:last nan
attr interpolationmode none
attr title "pings lost, last"
scalar MeshLAN.host[1].pingApp[23] rtt:mean 0.0045259461219134
attr interpolationmode none
attr title "ping round-trip time, mean"
attr unit s
scalar MeshLAN.host[1].pingApp[24] "Pings sent" 374
scalar MeshLAN.host[1].pingApp[24] "ping loss rate (%)" 0.26737967914439
scalar MeshLAN.host[1].pingApp[24] "ping out-of-order rate (%)" 0.26737967914439
scalar MeshLAN.host[1].pingApp[24] pingRxSeq:count 280
attr interpolationmode none
attr title "ping rx seq, count"
scalar MeshLAN.host[1].pingApp[24] pingTxSeq:count 280
attr interpolationmode none
attr title "ping tx seq, count"
scalar MeshLAN.host[1].pingApp[24] numOutOfOrderArrivals:last nan
attr interpolationmode none
attr title "ping out-of-order arrivals, last"
scalar MeshLAN.host[1].pingApp[24] numLost:last nan
attr interpolationmode none
attr title "pings lost, last"
scalar MeshLAN.host[1].pingApp[24] rtt:mean 0.0043135182586204
attr interpolationmode none
attr title "ping round-trip time, mean"
attr unit s
scalar MeshLAN.host[1].pingApp[25] "Pings sent" 383
scalar MeshLAN.host[1].pingApp[25] "ping loss rate (%)" 0
scalar MeshLAN.host[1].pingApp[25] "ping out-of-order rate (%)" 0
scalar MeshLAN.host[1].pingApp[25] pingRxSeq:count 293
attr interpolationmode none
attr title "ping rx seq, count"
scalar MeshLAN.host[1].pingApp[25] pingTxSeq:count 293
attr interpolationmode none
attr title "ping tx seq, count"
scalar MeshLAN.host[1].pingApp[25] numOutOfOrderArrivals:last nan
attr interpolationmode none
attr title "ping out-of-order arrivals, last"
scalar MeshLAN.host[1].pingApp[25] numLost:last nan
attr interpolationmode none
attr title "pings lost, last"
scalar MeshLAN.host[1].pingApp[25] rtt:mean 0.0020552327802621
attr interpolationmode none
attr title "ping round-trip time, mean"
attr unit s
scalar MeshLAN.host[1].pingApp[26] "Pings sent" 393
scalar MeshLAN.host[1].pingApp[26] "ping loss rate (%)" 0
scalar MeshLAN.host[1].pingApp[26] "ping out-of-order rate (%)" 0.25445292620865
scalar MeshLAN.host[1].pingApp[26] pingRxSeq:count 298
attr interpolationmode none
attr title "ping rx seq, count"
scalar MeshLAN.host[1].pingApp[26] pingTxSeq:count 298
attr interpolationmode none
attr title "ping tx seq, count"
scalar MeshLAN.host[1].pingApp[26] numOutOfOrderArrivals:last 1
attr interpolationmode none
attr title "ping out-of-order arrivals, last"
scalar MeshLAN.host[1].pingApp[26] numLost:last 0
attr interpolationmode none
attr title "pings lost, last"
scalar MeshLAN.host[1].pingApp[26] rtt:mean 0.0033737474070102
attr interpolationmode none
attr title "ping round-trip time, mean"
attr unit s
scalar MeshLAN.host[1].pingApp[27] "Pings sent" 388
scalar MeshLAN.host[1].pingApp[27] "ping loss rate (%)" 0
scalar MeshLAN.host[1].pingApp[27] "ping out-of-order rate (%)" 0
scalar MeshLAN.host[1].pingApp[27] pingRxSeq:count 294
attr interpolationmode none
attr title "ping rx seq, count"
scalar MeshLAN.host[1].pingApp[27] pingTxSeq:count 294
attr interpolationmode none
attr title "ping tx seq, count"
scalar MeshLAN.host[1].pingApp[27] numOutOfOrderArrivals:last nan
attr interpolationmode none
attr title "ping out-of-order arrivals, last"
scalar MeshLAN.host[1].pingApp[27] numLost:last nan
attr interpolationmode none
attr title "pings lost, last"
scalar MeshLAN.host[1].pingApp[27] rtt:mean 0.0049859568229966
attr interpolationmode none
attr title "ping round-trip time, mean"
attr unit s
scalar MeshLAN.host[2].networkLayer.arp sentReply:count 0
attr title "ARP replies sent, count"
scalar MeshLAN.host[2].networkLayer.arp sentReq:count 0
attr title "ARP request sent, count"
scalar MeshLAN.host[2].networkLayer.arp failedARPResolution:count 0
attr title "ARP failed resolutions, count"
scalar MeshLAN.host[2].networkLayer.arp completedARPResolution:count 0
attr title "ARP completed resolutions, count"
scalar MeshLAN.host[2].networkLayer.arp initiatedARPResolution:count 0
attr title "ARP initiated resolutions, count"
scalar MeshLAN.host[2].lo0.lo droppedPkBitError:count 0
attr interpolationmode none
attr source dropPkBitError
attr title "packets dropped/bit error, count"
scalar MeshLAN.host[2].lo0.lo droppedPkBitError:sum(packetBytes) 0
attr interpolationmode none
attr source dropPkBitError
attr title "packets dropped/bit error, sum(packetBytes)"
scalar MeshLAN.host[2].lo0.lo rcvdPkFromHL:count 218
attr interpolationmode none
attr source packetReceivedFromUpper
attr title "packets received from higher layer, count"
scalar MeshLAN.host[2].lo0.lo rcvdPkFromHL:sum(packetBytes) 142222
attr interpolationmode none
attr source packetReceivedFromUpper
attr title "packets received from higher layer, sum(packetBytes)"
scalar MeshLAN.host[2].lo0.lo passedUpPk:count 218
attr interpolationmode none
attr source packetSentToUpper
attr title "packets passed to higher layer, count"
scalar MeshLAN.host[2].lo0.lo passedUpPk:sum(packetBytes) 142222
attr interpolationmode none
attr source packetSentToUpper
attr title "packets passed to higher layer, sum(packetBytes)"
scalar MeshLAN.host[2].eth[0].queue.pauseQueue queueLength:max nan
attr interpolationmode sample-hold
attr title "queue length, max"
scalar MeshLAN.host[2].eth[0].queue.pauseQueue queueLength:timeavg nan
attr interpolationmode sample-hold
attr title "queue length, timeavg"
statistic MeshLAN.host[2].eth[0].queue.pauseQueue queueingTime:histogram
field count 0
field mean nan
field stddev nan
field min nan
field max nan
field sum 0
field sqrsum 0
attr interpolationmode none
attr title "queueing time, histogram"
bin	-inf	0
bin	-0.5	0
bin	-0.46666666666667	0
bin	-0.43333333333333	0
bin	-0.4	0
bin	-0.36666666666667	0
bin	-0.33333333333333	0
bin	-0.3	0
bin	-0.26666666666667	0
bin	-0.23333333333333	0
bin	-0.2	0
bin	-0.16666666666667	0
bin	-0.13333333333333	0
bin	-0.1	0
bin	-0.066666666666667	0
bin	-0.033333333333333	0
bin	0	0
bin	0.033333333333333	0
bin	0.066666666666667	0
bin	0.1	0
bin	0.13333333333333	0
bin	0.16666666666667	0
bin	0.2	0
bin	0.23333333333333	0
bin	0.26666666666667	0
bin	0.3	0
bin	0.33333333333333	0
bin	0.36666666666667	0
bin	0.4	0
bin	0.43333333333333	0
bin	0.46666666666667	0
bin	0.5	0
scalar MeshLAN.host[2].eth[0].queue.pauseQueue dropPk:count 0
attr interpolationmode none
attr source dropPkByQueue
attr title "dropped packets, count"
scalar MeshLAN.host[2].eth[0].queue.pauseQueue dropPk:sum(packetBytes) 0
attr interpolationmode none
attr source dropPkByQueue
attr title "dropped packets, sum(packetBytes)"
scalar MeshLAN.host[2].eth[0].queue.pauseQueue rcvdPk:count 0
attr interpolationmode none
attr title "received packets, count"
scalar MeshLAN.host[2].eth[0].queue.pauseQueue rcvdPk:sum(packetBytes) 0
attr interpolationmode none
attr title "received packets, sum(packetBytes)"
scalar MeshLAN.host[2].eth[0].queue.dataQueue queueLength:max 10
attr interpolationmode sample-hold
attr title "queue length, max"
scalar MeshLAN.host[2].eth[0].queue.dataQueue queueLength:timeavg 0.67187600812797
attr interpolationmode sample-hold
attr title "queue length, timeavg"
statistic MeshLAN.host[2].eth[0].queue.dataQueue queueingTime:histogram
field count 13317
field mean 0.00075678221524085
field stddev 0.00081980417114365
field min 0
field max 0.006187835693
field sum 10.078068760362
field sqrsum 0.016576305554907
attr interpolationmode none
attr title "queueing time, histogram"
bin	-inf	0
bin	-0.001680785732	0
bin	-0.0014566809677333	0
bin	-0.0012325762034667	0
bin	-0.0010084714392	0
bin	-0.00078436667493333	0
bin	-0.00056026191066667	0
bin	-0.0003361571464	0
bin	-0.00011205238213333	4767
bin	0.00011205238213333	596
bin	0.0003361571464	651
bin	0.00056026191066667	646
bin	0.00078436667493333	3028
bin	0.0010084714392	740
bin	0.0012325762034667	646
bin	0.0014566809677333	568
bin	0.001680785732	437
bin	0.0019048904962667	308
bin	0.0021289952605333	261
bin	0.0023531000248	182
bin	0.0025772047890667	138
bin	0.0028013095533333	85
bin	0.0030254143176	75
bin	0.0032495190818667	62
bin	0.0034736238461333	41
bin	0.0036977286104	22
bin	0.0039218333746667	17
bin	0.0041459381389333	17
bin	0.0043700429032	4
bin	0.0045941476674667	9
bin	0.0048182524317333	4
bin	0.005042357196	13
scalar MeshLAN.host[2].eth[0].queue.dataQueue dropPk:count 2
attr interpolationmode none
attr source dropPkByQueue
attr title "dropped packets, count"
scalar MeshLAN.host[2].eth[0].queue.dataQueue dropPk:sum(packetBytes) 578
attr interpolationmode none
attr source dropPkByQueue
attr title "dropped packets, sum(packetBytes)"
scalar MeshLAN.host[2].eth[0].queue.dataQueue rcvdPk:count 13319
attr interpolationmode none
attr title "received packets, count"
scalar MeshLAN.host[2].eth[0].queue.dataQueue rcvdPk:sum(packetBytes) 9254975
attr interpolationmode none
attr title "received packets, sum(packetBytes)"
scalar MeshLAN.host[2].eth[0].mac "simulated time" 20
scalar MeshLAN.host[2].eth[0].mac full-duplex 1
scalar MeshLAN.host[2].eth[0].mac "frames/sec sent" 877.8
scalar MeshLAN.host[2].eth[0].mac "frames/sec rcvd" 877.05
scalar MeshLAN.host[2].eth[0].mac "bits/sec sent" 4875329.6
scalar MeshLAN.host[2].eth[0].mac "bits/sec rcvd" 4871438.8
scalar MeshLAN.host[2].eth[0].mac "rx channel idle (%)" 50.7243
scalar MeshLAN.host[2].eth[0].mac "rx channel utilization (%)" 49.2757
scalar MeshLAN.host[2].eth[0].mac rxPkFromHL:count 13317
attr interpolationmode none
attr source rxPkFromHL
attr title "packet bytes from higher layer, count"
scalar MeshLAN.host[2].eth[0].mac rxPkFromHL:sum(packetBytes) 9254397
attr interpolationmode none
attr source rxPkFromHL
attr title "packet bytes from higher layer, sum(packetBytes)"
scalar MeshLAN.host[2].eth[0].mac rxPausePkUnits:count 0
attr interpolationmode none
attr title "pause units received, count"
scalar MeshLAN.host[2].eth[0].mac rxPausePkUnits:sum 0
attr interpolationmode none
attr title "pause units received, sum"
scalar MeshLAN.host[2].eth[0].mac txPausePkUnits:count 0
attr interpolationmode none
attr title "pause units sent, count"
scalar MeshLAN.host[2].eth[0].mac txPausePkUnits:sum 0
attr interpolationmode none
attr title "pause units sent, sum"
scalar MeshLAN.host[2].eth[0].mac txPk:count 13318
attr interpolationmode none
attr source txPk
attr title "packets transmitted, count"
scalar MeshLAN.host[2].eth[0].mac txPk:sum(packetBytes) 9255409
attr interpolationmode none
attr source txPk
attr title "packets transmitted, sum(packetBytes)"
scalar MeshLAN.host[2].eth[0].mac droppedPkNotForUs:count 0
attr interpolationmode none
attr source dropPkNotForUs
attr title "packets dropped/not for us, count"
scalar MeshLAN.host[2].eth[0].mac droppedPkNotForUs:sum(packetBytes) 0
attr interpolationmode none
attr source dropPkNotForUs
attr title "packets dropped/not for us, sum(packetBytes)"
scalar MeshLAN.host[2].eth[0].mac droppedPkBitError:count 0
attr interpolationmode none
attr source dropPkBitError
attr title "packets dropped/bit error, count"
scalar MeshLAN.host[2].eth[0].mac droppedPkBitError:sum(packetBytes) 0
attr interpolationmode none
attr source dropPkBitError
attr title "packets dropped/bit error, sum(packetBytes)"
scalar MeshLAN.host[2].eth[0].mac droppedPkIfaceDown:count 0
attr interpolationmode none
attr source dropPkIfaceDown
attr title "packets dropped/interface down, count"
scalar MeshLAN.host[2].eth[0].mac droppedPkIfaceDown:sum(packetBytes) 0
attr interpolationmode none
attr source dropPkIfaceDown
attr title "packets dropped/interface down, sum(packetBytes)"
scalar MeshLAN.host[2].eth[0].mac rxPkOk:count 13311
attr interpolationmode none
attr source rxPkOk
attr title "packets received OK, count"
scalar MeshLAN.host[2].eth[0].mac rxPkOk:sum(packetBytes) 9251766
attr interpolationmode none
attr source rxPkOk
attr title "packets received OK, sum(packetBytes)"
scalar MeshLAN.host[2].eth[0].mac passedUpPk:count 13311
attr interpolationmode none
attr source packetSentToUpper
attr title "packets passed to higher layer, count"
scalar MeshLAN.host[2].eth[0].mac passedUpPk:sum(packetBytes) 9251766
attr interpolationmode none
attr source packetSentToUpper
attr title "packets passed to higher layer, sum(packetBytes)"
scalar MeshLAN.host[2].eth[0].encap pauseSent:count 0
attr title "pause sent, count"
scalar MeshLAN.host[2].eth[0].encap pauseSent:sum 0
attr title "pause sent, sum"
scalar MeshLAN.host[2].eth[0].encap decapPk:count 13311
attr interpolationmode none
attr source decapPk
attr title "packets decapsulated, count"
scalar MeshLAN.host[2].eth[0].encap decapPk:sum(packetBytes) 9011846
attr interpolationmode none
attr source decapPk
attr title "packets decapsulated, sum(packetBytes)"
scalar MeshLAN.host[2].eth[0].encap encapPk:count 13319
attr interpolationmode none
attr source encapPk
attr title "packets encapsulated, count"
scalar MeshLAN.host[2].eth[0].encap encapPk:sum(packetBytes) 9014911
attr interpolationmode none
attr source encapPk
attr title "packets encapsulated, sum(packetBytes)"
scalar MeshLAN.host[2].pingApp[0] "Pings sent" 386
scalar MeshLAN.host[2].pingApp[0] "ping loss rate (%)" 0.25906735751295
scalar MeshLAN.host[2].pingApp[0] "ping out-of-order rate (%)" 0
scalar MeshLAN.host[2].pingApp[0] pingRxSeq:count 287
attr interpolationmode none
attr title "ping rx seq, count"
scalar MeshLAN.host[2].pingApp[0] pingTxSeq:count 288
attr interpolationmode none
attr title "ping tx seq, count"
scalar MeshLAN.host[2].pingApp[0] numOutOfOrderArrivals:last nan
attr interpolationmode none
attr title "ping out-of-order arrivals, last"
scalar MeshLAN.host[2].pingApp[0] numLost:last 1
attr interpolationmode none
attr title "pings lost, last"
scalar MeshLAN.host[2].pingApp[0] rtt:mean 0.0043832850569071
attr interpolationmode none
attr title "ping round-trip time, mean"
attr unit s
scalar MeshLAN.host[2].pingApp[1] "Pings sent" 374
scalar MeshLAN.host[2].pingApp[1] "ping loss rate (%)" 0
scalar MeshLAN.host[2].pingApp[1] "ping out-of-order rate (%)" 0
scalar MeshLAN.host[2].pingApp[1] pingRxSeq:count 289
attr interpolationmode none
attr title "ping rx seq, count"
scalar MeshLAN.host[2].pingApp[1] pingTxSeq:count 289
attr interpolationmode none
attr title "ping tx seq, count"
scalar MeshLAN.host[2].pingApp[1] numOutOfOrderArrivals:last nan
attr interpolationmode none
attr title "ping out-of-order arrivals, last"
scalar MeshLAN.host[2].pingApp[1] numLost:last nan
attr interpolationmode none
attr title "pings lost, last"
scalar MeshLAN.host[2].pingApp[1] rtt:mean 0.0046791023825263
attr interpolationmode none
attr title "ping round-trip time, mean"
attr unit s
scalar MeshLAN.host[2].pingApp[2] "Pings sent" 399
scalar MeshLAN.host[2].pingApp[2] "ping loss rate (%)" 0.50125313283208
scalar MeshLAN.host[2].pingApp[2] "ping out-of-order rate (%)" 0
scalar MeshLAN.host[2].pingApp[2] pingRxSeq:count 293
attr interpolationmode none
attr title "ping rx seq, count"
scalar MeshLAN.host[2].pingApp[2] pingTxSeq:count 295
attr interpolationmode none
attr title "ping tx seq, count"
scalar MeshLAN.host[2].pingApp[2] numOutOfOrderArrivals:last nan
attr interpolationmode none
attr title "ping out-of-order arrivals, last"
scalar MeshLAN.host[2].pingApp[2] numLost:last 1
attr interpolationmode none
attr title "pings lost, last"
scalar MeshLAN.host[2].pingApp[2] rtt:mean 0.002001949009866
attr interpolationmode none
attr title "ping round-trip time, mean"
attr unit s
scalar MeshLAN.host[2].pingApp[3] "Pings sent" 382
scalar MeshLAN.host[2].pingApp[3] "ping loss rate (%)" 0.26178010471204
scalar MeshLAN.host[2].pingApp[3] "ping out-of-order rate (%)" 0
scalar MeshLAN.host[2].pingApp[3] pingRxSeq:count 293
attr interpolationmode none
attr title "ping rx seq, count"
scalar MeshLAN.host[2].pingApp[3] pingTxSeq:count 293
attr interpolationmode none
attr title "ping tx seq, count"
scalar MeshLAN.host[2].pingApp[3] numOutOfOrderArrivals:last nan
attr interpolationmode none
attr title "ping out-of-order arrivals, last"
scalar MeshLAN.host[2].pingApp[3] numLost:last nan
attr interpolationmode none
attr title "pings lost, last"
scalar MeshLAN.host[2].pingApp[3] rtt:mean 0.0041550505674655
attr interpolationmode none
attr title "ping round-trip time, mean"
attr unit s
scalar MeshLAN.host[2].pingApp[4] "Pings sent" 395
scalar MeshLAN.host[2].pingApp[4] "ping loss rate (%)" 0.25316455696203
scalar MeshLAN.host[2].pingApp[4] "ping out-of-order rate (%)" 0
scalar MeshLAN.host[2].pingApp[4] pingRxSeq:count 293
attr interpolationmode none
attr title "ping rx seq, count"
scalar MeshLAN.host[2].pingApp[4] pingTxSeq:count 294
attr interpolationmode none
attr title "ping tx seq, count"
scalar MeshLAN.host[2].pingApp[4] numOutOfOrderArrivals:last nan
attr interpolationmode none
attr title "ping out-of-order arrivals, last"
scalar MeshLAN.host[2].pingApp[4] numLost:last nan
attr interpolationmode none
attr title "pings lost, last"
scalar MeshLAN.host[2].pingApp[4] rtt:mean 0.0038870591826804
attr interpolationmode none
attr title "ping round-trip time, mean"
attr unit s
scalar MeshLAN.host[2].pingApp[5] "Pings sent" 379
scalar MeshLAN.host[2].pingApp[5] "ping loss rate (%)" 0
scalar MeshLAN.host[2].pingApp[5] "ping out-of-order rate (%)" 0.52770448548813
scalar MeshLAN.host[2].pingApp[5] pingRxSeq:count 290
attr interpolationmode none
attr title "ping rx seq, count"
scalar MeshLAN.host[2].pingApp[5] pingTxSeq:count 290
attr interpolationmode none
attr title "ping tx seq, count"
scalar MeshLAN.host[2].pingApp[5] numOutOfOrderArrivals:last 2
attr interpolationmode none
attr title "ping out-of-order arrivals, last"
scalar MeshLAN.host[2].pingApp[5] numLost:last 0
attr interpolationmode none
attr title "pings lost, last"
scalar MeshLAN.host[2].pingApp[5] rtt:mean 0.0037635886947292
attr interpolationmode none
attr title "ping round-trip time, mean"
attr unit s
scalar MeshLAN.host[2].pingApp[6] "Pings sent" 382
scalar MeshLAN.host[2].pingApp[6] "ping loss rate (%)" 0
scalar MeshLAN.host[2].pingApp[6] "ping out-of-order rate (%)" 0
scalar MeshLAN.host[2].pingApp[6] pingRxSeq:count 289
attr interpolationmode none
attr title "ping rx seq, count"
scalar MeshLAN.host[2].pingApp[6] pingTxSeq:count 289
attr interpolationmode none
attr title "ping tx seq, count"
scalar MeshLAN.host[2].pingApp[6] numOutOfOrderArrivals:last nan
attr interpolationmode none
attr title "ping out-of-order arrivals, last"
scalar MeshLAN.host[2].pingApp[6] numLost:last nan
attr interpolationmode none
attr title "pings lost, last"
scalar MeshLAN.host[2].pingApp[6] rtt:mean 0.0056038947230209
attr interpolationmode none
attr title "ping round-trip time, mean"
attr unit s
scalar MeshLAN.host[2].pingApp[7] "Pings sent" 391
scalar MeshLAN.host[2].pingApp[7] "ping loss rate (%)" 0.25575447570332
scalar MeshLAN.host[2].pingApp[7] "ping out-of-order rate (%)" 0
scalar MeshLAN.host[2].pingApp[7] pingRxSeq:count 291
attr interpolationmode none
attr title "ping rx seq, count"
[...]
attr interpolationmode none
attr title "received packets, sum(packetBytes)"
scalar MeshLAN.router[9].eth[7].mac "simulated time" 20
scalar MeshLAN.router[9].eth[7].mac full-duplex 1
scalar MeshLAN.router[9].eth[7].mac "frames/sec sent" 170.75
scalar MeshLAN.router[9].eth[7].mac "frames/sec rcvd" 170.65
scalar MeshLAN.router[9].eth[7].mac "bits/sec sent" 962882.4
scalar MeshLAN.router[9].eth[7].mac "bits/sec rcvd" 962406.4
scalar MeshLAN.router[9].eth[7].mac "rx channel idle (%)" 90.26672
scalar MeshLAN.router[9].eth[7].mac "rx channel utilization (%)" 9.73328
scalar MeshLAN.router[9].eth[7].mac rxPkFromHL:count 2617
attr interpolationmode none
attr source rxPkFromHL
attr title "packet bytes from higher layer, count"
scalar MeshLAN.router[9].eth[7].mac rxPkFromHL:sum(packetBytes) 1849209
attr interpolationmode none
attr source rxPkFromHL
attr title "packet bytes from higher layer, sum(packetBytes)"
scalar MeshLAN.router[9].eth[7].mac rxPausePkUnits:count 0
attr interpolationmode none
attr title "pause units received, count"
scalar MeshLAN.router[9].eth[7].mac rxPausePkUnits:sum 0
attr interpolationmode none
attr title "pause units received, sum"
scalar MeshLAN.router[9].eth[7].mac txPausePkUnits:count 0
attr interpolationmode none
attr title "pause units sent, count"
scalar MeshLAN.router[9].eth[7].mac txPausePkUnits:sum 0
attr interpolationmode none
attr title "pause units sent, sum"
scalar MeshLAN.router[9].eth[7].mac txPk:count 2617
attr interpolationmode none
attr source txPk
attr title "packets transmitted, count"
scalar MeshLAN.router[9].eth[7].mac txPk:sum(packetBytes) 1849209
attr interpolationmode none
attr source txPk
attr title "packets transmitted, sum(packetBytes)"
scalar MeshLAN.router[9].eth[7].mac droppedPkNotForUs:count 0
attr interpolationmode none
attr source dropPkNotForUs
attr title "packets dropped/not for us, count"
scalar MeshLAN.router[9].eth[7].mac droppedPkNotForUs:sum(packetBytes) 0
attr interpolationmode none
attr source dropPkNotForUs
attr title "packets dropped/not for us, sum(packetBytes)"
scalar MeshLAN.router[9].eth[7].mac droppedPkBitError:count 0
attr interpolationmode none
attr source dropPkBitError
attr title "packets dropped/bit error, count"
scalar MeshLAN.router[9].eth[7].mac droppedPkBitError:sum(packetBytes) 0
attr interpolationmode none
attr source dropPkBitError
attr title "packets dropped/bit error, sum(packetBytes)"
scalar MeshLAN.router[9].eth[7].mac droppedPkIfaceDown:count 0
attr interpolationmode none
attr source dropPkIfaceDown
attr title "packets dropped/interface down, count"
scalar MeshLAN.router[9].eth[7].mac droppedPkIfaceDown:sum(packetBytes) 0
attr interpolationmode none
attr source dropPkIfaceDown
attr title "packets dropped/interface down, sum(packetBytes)"
scalar MeshLAN.router[9].eth[7].mac rxPkOk:count 2615
attr interpolationmode none
attr source rxPkOk
attr title "packets received OK, count"
scalar MeshLAN.router[9].eth[7].mac rxPkOk:sum(packetBytes) 1848019
attr interpolationmode none
attr source rxPkOk
attr title "packets received OK, sum(packetBytes)"
scalar MeshLAN.router[9].eth[7].mac passedUpPk:count 2615
attr interpolationmode none
attr source packetSentToUpper
attr title "packets passed to higher layer, count"
scalar MeshLAN.router[9].eth[7].mac passedUpPk:sum(packetBytes) 1848019
attr interpolationmode none
attr source packetSentToUpper
attr title "packets passed to higher layer, sum(packetBytes)"
scalar MeshLAN.router[9].eth[7].encap pauseSent:count 0
attr title "pause sent, count"
scalar MeshLAN.router[9].eth[7].encap pauseSent:sum 0
attr title "pause sent, sum"
scalar MeshLAN.router[9].eth[7].encap decapPk:count 2615
attr interpolationmode none
attr source decapPk
attr title "packets decapsulated, count"
scalar MeshLAN.router[9].eth[7].encap decapPk:sum(packetBytes) 1800469
attr interpolationmode none
attr source decapPk
attr title "packets decapsulated, sum(packetBytes)"
scalar MeshLAN.router[9].eth[7].encap encapPk:count 2617
attr interpolationmode none
attr source encapPk
attr title "packets encapsulated, count"
scalar MeshLAN.router[9].eth[7].encap encapPk:sum(packetBytes) 1801623
attr interpolationmode none
attr source encapPk
attr title "packets encapsulated, sum(packetBytes)"
scalar MeshLAN.router[9].eth[8].queue.pauseQueue queueLength:max nan
attr interpolationmode sample-hold
attr title "queue length, max"
scalar MeshLAN.router[9].eth[8].queue.pauseQueue queueLength:timeavg nan
attr interpolationmode sample-hold
attr title "queue length, timeavg"
statistic MeshLAN.router[9].eth[8].queue.pauseQueue queueingTime:histogram
field count 0
field mean nan
field stddev nan
field min nan
field max nan
field sum 0
field sqrsum 0
attr interpolationmode none
attr title "queueing time, histogram"
bin	-inf	0
bin	-0.5	0
bin	-0.46666666666667	0
bin	-0.43333333333333	0
bin	-0.4	0
bin	-0.36666666666667	0
bin	-0.33333333333333	0
bin	-0.3	0
bin	-0.26666666666667	0
bin	-0.23333333333333	0
bin	-0.2	0
bin	-0.16666666666667	0
bin	-0.13333333333333	0
bin	-0.1	0
bin	-0.066666666666667	0
bin	-0.033333333333333	0
bin	0	0
bin	0.033333333333333	0
bin	0.066666666666667	0
bin	0.1	0
bin	0.13333333333333	0
bin	0.16666666666667	0
bin	0.2	0
bin	0.23333333333333	0
bin	0.26666666666667	0
bin	0.3	0
bin	0.33333333333333	0
bin	0.36666666666667	0
bin	0.4	0
bin	0.43333333333333	0
bin	0.46666666666667	0
bin	0.5	0
scalar MeshLAN.router[9].eth[8].queue.pauseQueue dropPk:count 0
attr interpolationmode none
attr source dropPkByQueue
attr title "dropped packets, count"
scalar MeshLAN.router[9].eth[8].queue.pauseQueue dropPk:sum(packetBytes) 0
attr interpolationmode none
attr source dropPkByQueue
attr title "dropped packets, sum(packetBytes)"
scalar MeshLAN.router[9].eth[8].queue.pauseQueue rcvdPk:count 0
attr interpolationmode none
attr title "received packets, count"
scalar MeshLAN.router[9].eth[8].queue.pauseQueue rcvdPk:sum(packetBytes) 0
attr interpolationmode none
attr title "received packets, sum(packetBytes)"
scalar MeshLAN.router[9].eth[8].queue.dataQueue queueLength:max 4
attr interpolationmode sample-hold
attr title "queue length, max"
scalar MeshLAN.router[9].eth[8].queue.dataQueue queueLength:timeavg 0.053744256479651
attr interpolationmode sample-hold
attr title "queue length, timeavg"
statistic MeshLAN.router[9].eth[8].queue.dataQueue queueingTime:histogram
field count 2665
field mean 0.00030231199614522
field stddev 0.00044040838059241
field min 0
field max 0.002417466588
field sum 0.80566146972701
field sqrsum 0.00076026934620868
attr interpolationmode none
attr title "queueing time, histogram"
bin	-inf	0
bin	-0.0008464	0
bin	-0.00073354666666667	0
bin	-0.00062069333333333	0
bin	-0.00050784	0
bin	-0.00039498666666667	0
bin	-0.00028213333333333	0
bin	-0.00016928	0
bin	-5.6426666666667e-005	1593
bin	5.6426666666667e-005	23
bin	0.00016928	86
bin	0.00028213333333333	78
bin	0.00039498666666667	45
bin	0.00050784	107
bin	0.00062069333333333	187
bin	0.00073354666666667	49
bin	0.0008464	362
bin	0.00095925333333333	17
bin	0.0010721066666667	11
bin	0.00118496	10
bin	0.0012978133333333	8
bin	0.0014106666666667	11
bin	0.00152352	6
bin	0.0016363733333333	58
bin	0.0017492266666667	3
bin	0.00186208	2
bin	0.0019749333333333	4
bin	0.0020877866666667	2
bin	0.00220064	1
bin	0.0023134933333333	2
bin	0.0024263466666667	0
bin	0.0025392	0
scalar MeshLAN.router[9].eth[8].queue.dataQueue dropPk:count 0
attr interpolationmode none
attr source dropPkByQueue
attr title "dropped packets, count"
scalar MeshLAN.router[9].eth[8].queue.dataQueue dropPk:sum(packetBytes) 0
attr interpolationmode none
attr source dropPkByQueue
attr title "dropped packets, sum(packetBytes)"
scalar MeshLAN.router[9].eth[8].queue.dataQueue rcvdPk:count 2665
attr interpolationmode none
attr title "received packets, count"
scalar MeshLAN.router[9].eth[8].queue.dataQueue rcvdPk:sum(packetBytes) 1957752
attr interpolationmode none
attr title "received packets, sum(packetBytes)"
scalar MeshLAN.router[9].eth[8].mac "simulated time" 20
scalar MeshLAN.router[9].eth[8].mac full-duplex 1
scalar MeshLAN.router[9].eth[8].mac "frames/sec sent" 173
scalar MeshLAN.router[9].eth[8].mac "frames/sec rcvd" 173.05
scalar MeshLAN.router[9].eth[8].mac "bits/sec sent" 1016474
scalar MeshLAN.router[9].eth[8].mac "bits/sec rcvd" 1016889.2
scalar MeshLAN.router[9].eth[8].mac "rx channel idle (%)" 89.720356
scalar MeshLAN.router[9].eth[8].mac "rx channel utilization (%)" 10.279644
scalar MeshLAN.router[9].eth[8].mac rxPkFromHL:count 2665
attr interpolationmode none
attr source rxPkFromHL
attr title "packet bytes from higher layer, count"
scalar MeshLAN.router[9].eth[8].mac rxPkFromHL:sum(packetBytes) 1957752
attr interpolationmode none
attr source rxPkFromHL
attr title "packet bytes from higher layer, sum(packetBytes)"
scalar MeshLAN.router[9].eth[8].mac rxPausePkUnits:count 0
attr interpolationmode none
attr title "pause units received, count"
scalar MeshLAN.router[9].eth[8].mac rxPausePkUnits:sum 0
attr interpolationmode none
attr title "pause units received, sum"
scalar MeshLAN.router[9].eth[8].mac txPausePkUnits:count 0
attr interpolationmode none
attr title "pause units sent, count"
scalar MeshLAN.router[9].eth[8].mac txPausePkUnits:sum 0
attr interpolationmode none
attr title "pause units sent, sum"
scalar MeshLAN.router[9].eth[8].mac txPk:count 2665
attr interpolationmode none
attr source txPk
attr title "packets transmitted, count"
scalar MeshLAN.router[9].eth[8].mac txPk:sum(packetBytes) 1957752
attr interpolationmode none
attr source txPk
attr title "packets transmitted, sum(packetBytes)"
scalar MeshLAN.router[9].eth[8].mac droppedPkNotForUs:count 0
attr interpolationmode none
attr source dropPkNotForUs
attr title "packets dropped/not for us, count"
scalar MeshLAN.router[9].eth[8].mac droppedPkNotForUs:sum(packetBytes) 0
attr interpolationmode none
attr source dropPkNotForUs
attr title "packets dropped/not for us, sum(packetBytes)"
scalar MeshLAN.router[9].eth[8].mac droppedPkBitError:count 0
attr interpolationmode none
attr source dropPkBitError
attr title "packets dropped/bit error, count"
scalar MeshLAN.router[9].eth[8].mac droppedPkBitError:sum(packetBytes) 0
attr interpolationmode none
attr source dropPkBitError
attr title "packets dropped/bit error, sum(packetBytes)"
scalar MeshLAN.router[9].eth[8].mac droppedPkIfaceDown:count 0
attr interpolationmode none
attr source dropPkIfaceDown
attr title "packets dropped/interface down, count"
scalar MeshLAN.router[9].eth[8].mac droppedPkIfaceDown:sum(packetBytes) 0
attr interpolationmode none
attr source dropPkIfaceDown
attr title "packets dropped/interface down, sum(packetBytes)"
scalar MeshLAN.router[9].eth[8].mac rxPkOk:count 2666
attr interpolationmode none
attr source rxPkOk
attr title "packets received OK, count"
scalar MeshLAN.router[9].eth[8].mac rxPkOk:sum(packetBytes) 1958790
attr interpolationmode none
attr source rxPkOk
attr title "packets received OK, sum(packetBytes)"
scalar MeshLAN.router[9].eth[8].mac passedUpPk:count 2666
attr interpolationmode none
attr source packetSentToUpper
attr title "packets passed to higher layer, count"
scalar MeshLAN.router[9].eth[8].mac passedUpPk:sum(packetBytes) 1958790
attr interpolationmode none
attr source packetSentToUpper
attr title "packets passed to higher layer, sum(packetBytes)"
scalar MeshLAN.router[9].eth[8].encap pauseSent:count 0
attr title "pause sent, count"
scalar MeshLAN.router[9].eth[8].encap pauseSent:sum 0
attr title "pause sent, sum"
scalar MeshLAN.router[9].eth[8].encap decapPk:count 2666
attr interpolationmode none
attr source decapPk
attr title "packets decapsulated, count"
scalar MeshLAN.router[9].eth[8].encap decapPk:sum(packetBytes) 1909902
attr interpolationmode none
attr source decapPk
attr title "packets decapsulated, sum(packetBytes)"
scalar MeshLAN.router[9].eth[8].encap encapPk:count 2665
attr interpolationmode none
attr source encapPk
attr title "packets encapsulated, count"
scalar MeshLAN.router[9].eth[8].encap encapPk:sum(packetBytes) 1908882
attr interpolationmode none
attr source encapPk
attr title "packets encapsulated, sum(packetBytes)"
scalar MeshLAN.router[9].eth[9].queue.pauseQueue queueLength:max nan
attr interpolationmode sample-hold
attr title "queue length, max"
scalar MeshLAN.router[9].eth[9].queue.pauseQueue queueLength:timeavg nan
attr interpolationmode sample-hold
attr title "queue length, timeavg"
statistic MeshLAN.router[9].eth[9].queue.pauseQueue queueingTime:histogram
field count 0
field mean nan
field stddev nan
field min nan
field max nan
field sum 0
field sqrsum 0
attr interpolationmode none
attr title "queueing time, histogram"
bin	-inf	0
bin	-0.5	0
bin	-0.46666666666667	0
bin	-0.43333333333333	0
bin	-0.4	0
bin	-0.36666666666667	0
bin	-0.33333333333333	0
bin	-0.3	0
bin	-0.26666666666667	0
bin	-0.23333333333333	0
bin	-0.2	0
bin	-0.16666666666667	0
bin	-0.13333333333333	0
bin	-0.1	0
bin	-0.066666666666667	0
bin	-0.033333333333333	0
bin	0	0
bin	0.033333333333333	0
bin	0.066666666666667	0
bin	0.1	0
bin	0.13333333333333	0
bin	0.16666666666667	0
bin	0.2	0
bin	0.23333333333333	0
bin	0.26666666666667	0
bin	0.3	0
bin	0.33333333333333	0
bin	0.36666666666667	0
bin	0.4	0
bin	0.43333333333333	0
bin	0.46666666666667	0
bin	0.5	0
scalar MeshLAN.router[9].eth[9].queue.pauseQueue dropPk:count 0
attr interpolationmode none
attr source dropPkByQueue
attr title "dropped packets, count"
scalar MeshLAN.router[9].eth[9].queue.pauseQueue dropPk:sum(packetBytes) 0
attr interpolationmode none
attr source dropPkByQueue
attr title "dropped packets, sum(packetBytes)"
scalar MeshLAN.router[9].eth[9].queue.pauseQueue rcvdPk:count 0
attr interpolationmode none
attr title "received packets, count"
scalar MeshLAN.router[9].eth[9].queue.pauseQueue rcvdPk:sum(packetBytes) 0
attr interpolationmode none
attr title "received packets, sum(packetBytes)"
scalar MeshLAN.router[9].eth[9].queue.dataQueue queueLength:max 4
attr interpolationmode sample-hold
attr title "queue length, max"
scalar MeshLAN.router[9].eth[9].queue.dataQueue queueLength:timeavg 0.053305937831534
attr interpolationmode sample-hold
attr title "queue length, timeavg"
statistic MeshLAN.router[9].eth[9].queue.dataQueue queueingTime:histogram
field count 2583
field mean 0.00030911421847155
field stddev 0.00042207687580515
field min 0
field max 0.002535418924
field sum 0.79844202631201
field sqrsum 0.0007067902145872
attr interpolationmode none
attr title "queueing time, histogram"
bin	-inf	0
bin	-0.000682057241	0
bin	-0.00059111627553333	0
bin	-0.00050017531006667	0
bin	-0.0004092343446	0
bin	-0.00031829337913333	0
bin	-0.00022735241366667	0
bin	-0.0001364114482	0
bin	-4.5470482733333e-005	1478
bin	4.5470482733333e-005	29
bin	0.0001364114482	76
bin	0.00022735241366667	43
bin	0.00031829337913333	53
bin	0.0004092343446	49
bin	0.00050017531006667	103
bin	0.00059111627553333	73
bin	0.000682057241	93
bin	0.00077299820646667	482
bin	0.00086393917193333	10
bin	0.0009548801374	9
bin	0.0010458211028667	7
bin	0.0011367620683333	8
bin	0.0012277030338	7
bin	0.0013186439992667	8
bin	0.0014095849647333	3
bin	0.0015005259302	5
bin	0.0015914668956667	3
bin	0.0016824078611333	35
bin	0.0017733488266	3
bin	0.0018642897920667	0
bin	0.0019552307575333	0
bin	0.002046171723	6
scalar MeshLAN.router[9].eth[9].queue.dataQueue dropPk:count 0
attr interpolationmode none
attr source dropPkByQueue
attr title "dropped packets, count"
scalar MeshLAN.router[9].eth[9].queue.dataQueue dropPk:sum(packetBytes) 0
attr interpolationmode none
attr source dropPkByQueue
attr title "dropped packets, sum(packetBytes)"
scalar MeshLAN.router[9].eth[9].queue.dataQueue rcvdPk:count 2583
attr interpolationmode none
attr title "received packets, count"
scalar MeshLAN.router[9].eth[9].queue.dataQueue rcvdPk:sum(packetBytes) 1836868
attr interpolationmode none
attr title "received packets, sum(packetBytes)"
scalar MeshLAN.router[9].eth[9].mac "simulated time" 20
scalar MeshLAN.router[9].eth[9].mac full-duplex 1
scalar MeshLAN.router[9].eth[9].mac "frames/sec sent" 168.95
scalar MeshLAN.router[9].eth[9].mac "frames/sec rcvd" 168.95
scalar MeshLAN.router[9].eth[9].mac "bits/sec sent" 961277.2
scalar MeshLAN.router[9].eth[9].mac "bits/sec rcvd" 961277.2
scalar MeshLAN.router[9].eth[9].mac "rx channel idle (%)" 90.2791
scalar MeshLAN.router[9].eth[9].mac "rx channel utilization (%)" 9.7209
scalar MeshLAN.router[9].eth[9].mac rxPkFromHL:count 2583
attr interpolationmode none
attr source rxPkFromHL
attr title "packet bytes from higher layer, count"
scalar MeshLAN.router[9].eth[9].mac rxPkFromHL:sum(packetBytes) 1836868
attr interpolationmode none
attr source rxPkFromHL
attr title "packet bytes from higher layer, sum(packetBytes)"
scalar MeshLAN.router[9].eth[9].mac rxPausePkUnits:count 0
attr interpolationmode none
attr title "pause units received, count"
scalar MeshLAN.router[9].eth[9].mac rxPausePkUnits:sum 0
attr interpolationmode none
attr title "pause units received, sum"
scalar MeshLAN.router[9].eth[9].mac txPausePkUnits:count 0
attr interpolationmode none
attr title "pause units sent, count"
scalar MeshLAN.router[9].eth[9].mac txPausePkUnits:sum 0
attr interpolationmode none
attr title "pause units sent, sum"
scalar MeshLAN.router[9].eth[9].mac txPk:count 2583
attr interpolationmode none
attr source txPk
attr title "packets transmitted, count"
scalar MeshLAN.router[9].eth[9].mac txPk:sum(packetBytes) 1836868
attr interpolationmode none
attr source txPk
attr title "packets transmitted, sum(packetBytes)"
scalar MeshLAN.router[9].eth[9].mac droppedPkNotForUs:count 0
attr interpolationmode none
attr source dropPkNotForUs
attr title "packets dropped/not for us, count"
scalar MeshLAN.router[9].eth[9].mac droppedPkNotForUs:sum(packetBytes) 0
attr interpolationmode none
attr source dropPkNotForUs
attr title "packets dropped/not for us, sum(packetBytes)"
scalar MeshLAN.router[9].eth[9].mac droppedPkBitError:count 0
attr interpolationmode none
attr source dropPkBitError
attr title "packets dropped/bit error, count"
scalar MeshLAN.router[9].eth[9].mac droppedPkBitError:sum(packetBytes) 0
attr interpolationmode none
attr source dropPkBitError
attr title "packets dropped/bit error, sum(packetBytes)"
scalar MeshLAN.router[9].eth[9].mac droppedPkIfaceDown:count 0
attr interpolationmode none
attr source dropPkIfaceDown
attr title "packets dropped/interface down, count"
scalar MeshLAN.router[9].eth[9].mac droppedPkIfaceDown:sum(packetBytes) 0
attr interpolationmode none
attr source dropPkIfaceDown
attr title "packets dropped/interface down, sum(packetBytes)"
scalar MeshLAN.router[9].eth[9].mac rxPkOk:count 2583
attr interpolationmode none
attr source rxPkOk
attr title "packets received OK, count"
scalar MeshLAN.router[9].eth[9].mac rxPkOk:sum(packetBytes) 1836868
attr interpolationmode none
attr source rxPkOk
attr title "packets received OK, sum(packetBytes)"
scalar MeshLAN.router[9].eth[9].mac passedUpPk:count 2583
attr interpolationmode none
attr source packetSentToUpper
attr title "packets passed to higher layer, count"
scalar MeshLAN.router[9].eth[9].mac passedUpPk:sum(packetBytes) 1836868
attr interpolationmode none
attr source packetSentToUpper
attr title "packets passed to higher layer, sum(packetBytes)"
scalar MeshLAN.router[9].eth[9].encap pauseSent:count 0
attr title "pause sent, count"
scalar MeshLAN.router[9].eth[9].encap pauseSent:sum 0
attr title "pause sent, sum"
scalar MeshLAN.router[9].eth[9].encap decapPk:count 2583
attr interpolationmode none
attr source decapPk
attr title "packets decapsulated, count"
scalar MeshLAN.router[9].eth[9].encap decapPk:sum(packetBytes) 1790110
attr interpolationmode none
attr source decapPk
attr title "packets decapsulated, sum(packetBytes)"
scalar MeshLAN.router[9].eth[9].encap encapPk:count 2583
attr interpolationmode none
attr source encapPk
attr title "packets encapsulated, count"
scalar MeshLAN.router[9].eth[9].encap encapPk:sum(packetBytes) 1790110
attr interpolationmode none
attr source encapPk
attr title "packets encapsulated, sum(packetBytes)"

