version 2
run MeshLAN10-sendinterval-2-20180110-21:47:57-9100
attr configname MeshLAN10-sendinterval
attr datetime 20180110-21:47:57
attr experiment MeshLAN10-sendinterval
attr inifile MeshLAN.ini
attr iterationvars $pa=180
attr iterationvarsf pa=180-
attr measurement $pa=180
attr network MeshLAN
attr processid 9100
attr repetition 0
attr replication #0
attr resultdir results
attr runnumber 2
attr seedset 2
itervar pa 180
param *.numHosts 10
param **.datarate 10Mbps
param **.host[*].pingApp[*].sendInterval "truncnormal(100ms, 50ms)"
param **.host[*].pingApp[*].packetSize "truncnormal(1024B, 512B)"
param **.queueType "\"DropTailQueue\""
param **.frameCapacity 10
param **.mtu 1024B
param **.host[*].numPingApps 180
param **.host[*].pingApp[*].typename "\"PingApp\""
param **.host[*].pingApp[*].count 1
param **.host[*].pingApp[*].startTime "truncnormal(200ms, 100ms)"
param **.host[*].pingApp[*].destAddr "\"*\""

scalar MeshLAN.host[0].networkLayer.arp sentReply:count 0
attr title "ARP replies sent, count"
scalar MeshLAN.host[0].networkLayer.arp sentReq:count 0
attr title "ARP request sent, count"
scalar MeshLAN.host[0].networkLayer.arp failedARPResolution:count 0
attr title "ARP failed resolutions, count"
scalar MeshLAN.host[0].networkLayer.arp completedARPResolution:count 0
attr title "ARP completed resolutions, count"
scalar MeshLAN.host[0].networkLayer.arp initiatedARPResolution:count 0
attr title "ARP initiated resolutions, count"
scalar MeshLAN.host[0].lo0.lo droppedPkBitError:count 0
attr interpolationmode none
attr source dropPkBitError
attr title "packets dropped/bit error, count"
scalar MeshLAN.host[0].lo0.lo droppedPkBitError:sum(packetBytes) 0
attr interpolationmode none
attr source dropPkBitError
attr title "packets dropped/bit error, sum(packetBytes)"
scalar MeshLAN.host[0].lo0.lo rcvdPkFromHL:count 790
attr interpolationmode none
attr source packetReceivedFromUpper
attr title "packets received from higher layer, count"
scalar MeshLAN.host[0].lo0.lo rcvdPkFromHL:sum(packetBytes) 530712
attr interpolationmode none
attr source packetReceivedFromUpper
attr title "packets received from higher layer, sum(packetBytes)"
scalar MeshLAN.host[0].lo0.lo passedUpPk:count 790
attr interpolationmode none
attr source packetSentToUpper
attr title "packets passed to higher layer, count"
scalar MeshLAN.host[0].lo0.lo passedUpPk:sum(packetBytes) 530712
attr interpolationmode none
attr source packetSentToUpper
attr title "packets passed to higher layer, sum(packetBytes)"
scalar MeshLAN.host[0].eth[0].queue.pauseQueue queueLength:max nan
attr interpolationmode sample-hold
attr title "queue length, max"
scalar MeshLAN.host[0].eth[0].queue.pauseQueue queueLength:timeavg nan
attr interpolationmode sample-hold
attr title "queue length, timeavg"
statistic MeshLAN.host[0].eth[0].queue.pauseQueue queueingTime:histogram
field count 0
field mean nan
field stddev nan
field min nan
field max nan
field sum 0
field sqrsum 0
attr interpolationmode none
attr title "queueing time, histogram"
bin	-inf	0
bin	-0.5	0
bin	-0.46666666666667	0
bin	-0.43333333333333	0
bin	-0.4	0
bin	-0.36666666666667	0
bin	-0.33333333333333	0
bin	-0.3	0
bin	-0.26666666666667	0
bin	-0.23333333333333	0
bin	-0.2	0
bin	-0.16666666666667	0
bin	-0.13333333333333	0
bin	-0.1	0
bin	-0.066666666666667	0
bin	-0.033333333333333	0
bin	0	0
bin	0.033333333333333	0
bin	0.066666666666667	0
bin	0.1	0
bin	0.13333333333333	0
bin	0.16666666666667	0
bin	0.2	0
bin	0.23333333333333	0
bin	0.26666666666667	0
bin	0.3	0
bin	0.33333333333333	0
bin	0.36666666666667	0
bin	0.4	0
bin	0.43333333333333	0
bin	0.46666666666667	0
bin	0.5	0
scalar MeshLAN.host[0].eth[0].queue.pauseQueue dropPk:count 0
attr interpolationmode none
attr source dropPkByQueue
attr title "dropped packets, count"
scalar MeshLAN.host[0].eth[0].queue.pauseQueue dropPk:sum(packetBytes) 0
attr interpolationmode none
attr source dropPkByQueue
attr title "dropped packets, sum(packetBytes)"
scalar MeshLAN.host[0].eth[0].queue.pauseQueue rcvdPk:count 0
attr interpolationmode none
attr title "received packets, count"
scalar MeshLAN.host[0].eth[0].queue.pauseQueue rcvdPk:sum(packetBytes) 0
attr interpolationmode none
attr title "received packets, sum(packetBytes)"
scalar MeshLAN.host[0].eth[0].queue.dataQueue queueLength:max 10
attr interpolationmode sample-hold
attr title "queue length, max"
scalar MeshLAN.host[0].eth[0].queue.dataQueue queueLength:timeavg 8.6803011746918
attr interpolationmode sample-hold
attr title "queue length, timeavg"
statistic MeshLAN.host[0].eth[0].queue.dataQueue queueingTime:histogram
field count 23709
field mean 0.0054914486001904
field stddev 0.0010956390306261
field min 0
field max 0.008298573556
field sum 130.19675486191
field sqrsum 0.74342846041959
attr interpolationmode none
attr title "queueing time, histogram"
bin	-inf	195
bin	0.0019712778245	70
bin	0.0022034973403	77
bin	0.0024357168561	86
bin	0.0026679363719	148
bin	0.0029001558877	185
bin	0.0031323754035	263
bin	0.0033645949193	284
bin	0.0035968144351	451
bin	0.0038290339509	574
bin	0.0040612534667	756
bin	0.0042934729825	893
bin	0.0045256924983	1110
bin	0.0047579120141	1426
bin	0.0049901315299	1677
bin	0.0052223510457	2008
bin	0.0054545705615	2169
bin	0.0056867900773	2333
bin	0.0059190095931	2190
bin	0.0061512291089	2056
bin	0.0063834486247	1649
bin	0.0066156681405	1272
bin	0.0068478876563	861
bin	0.0070801071721	528
bin	0.0073123266879	264
bin	0.0075445462037	122
bin	0.0077767657195	47
bin	0.0080089852353	13
bin	0.0082412047511	2
bin	0.0084734242669	0
bin	0.0087056437827	0
bin	0.0089378632985	0
scalar MeshLAN.host[0].eth[0].queue.dataQueue dropPk:count 18927
attr interpolationmode none
attr source dropPkByQueue
attr title "dropped packets, count"
scalar MeshLAN.host[0].eth[0].queue.dataQueue dropPk:sum(packetBytes) 11788844
attr interpolationmode none
attr source dropPkByQueue
attr title "dropped packets, sum(packetBytes)"
scalar MeshLAN.host[0].eth[0].queue.dataQueue rcvdPk:count 42639
attr interpolationmode none
attr title "received packets, count"
scalar MeshLAN.host[0].eth[0].queue.dataQueue rcvdPk:sum(packetBytes) 30055387
attr interpolationmode none
attr title "received packets, sum(packetBytes)"
scalar MeshLAN.host[0].eth[0].mac "simulated time" 20
scalar MeshLAN.host[0].eth[0].mac full-duplex 1
scalar MeshLAN.host[0].eth[0].mac "frames/sec sent" 1573.95
scalar MeshLAN.host[0].eth[0].mac "frames/sec rcvd" 1272
scalar MeshLAN.host[0].eth[0].mac "bits/sec sent" 9695290.8
scalar MeshLAN.host[0].eth[0].mac "bits/sec rcvd" 7196616
scalar MeshLAN.host[0].eth[0].mac "rx channel idle (%)" 27.21976
scalar MeshLAN.host[0].eth[0].mac "rx channel utilization (%)" 72.78024
scalar MeshLAN.host[0].eth[0].mac rxPkFromHL:count 23709
attr interpolationmode none
attr source rxPkFromHL
attr title "packet bytes from higher layer, count"
scalar MeshLAN.host[0].eth[0].mac rxPkFromHL:sum(packetBytes) 18264330
attr interpolationmode none
attr source rxPkFromHL
attr title "packet bytes from higher layer, sum(packetBytes)"
scalar MeshLAN.host[0].eth[0].mac rxPausePkUnits:count 0
attr interpolationmode none
attr title "pause units received, count"
scalar MeshLAN.host[0].eth[0].mac rxPausePkUnits:sum 0
attr interpolationmode none
attr title "pause units received, sum"
scalar MeshLAN.host[0].eth[0].mac txPausePkUnits:count 0
attr interpolationmode none
attr title "pause units sent, count"
scalar MeshLAN.host[0].eth[0].mac txPausePkUnits:sum 0
attr interpolationmode none
attr title "pause units sent, sum"
scalar MeshLAN.host[0].eth[0].mac txPk:count 23709
attr interpolationmode none
attr source txPk
attr title "packets transmitted, count"
scalar MeshLAN.host[0].eth[0].mac txPk:sum(packetBytes) 18264156
attr interpolationmode none
attr source txPk
attr title "packets transmitted, sum(packetBytes)"
scalar MeshLAN.host[0].eth[0].mac droppedPkNotForUs:count 0
attr interpolationmode none
attr source dropPkNotForUs
attr title "packets dropped/not for us, count"
scalar MeshLAN.host[0].eth[0].mac droppedPkNotForUs:sum(packetBytes) 0
attr interpolationmode none
attr source dropPkNotForUs
attr title "packets dropped/not for us, sum(packetBytes)"
scalar MeshLAN.host[0].eth[0].mac droppedPkBitError:count 0
attr interpolationmode none
attr source dropPkBitError
attr title "packets dropped/bit error, count"
scalar MeshLAN.host[0].eth[0].mac droppedPkBitError:sum(packetBytes) 0
attr interpolationmode none
attr source dropPkBitError
attr title "packets dropped/bit error, sum(packetBytes)"
scalar MeshLAN.host[0].eth[0].mac droppedPkIfaceDown:count 0
attr interpolationmode none
attr source dropPkIfaceDown
attr title "packets dropped/interface down, count"
scalar MeshLAN.host[0].eth[0].mac droppedPkIfaceDown:sum(packetBytes) 0
attr interpolationmode none
attr source dropPkIfaceDown
attr title "packets dropped/interface down, sum(packetBytes)"
scalar MeshLAN.host[0].eth[0].mac rxPkOk:count 18943
attr interpolationmode none
attr source rxPkOk
attr title "packets received OK, count"
scalar MeshLAN.host[0].eth[0].mac rxPkOk:sum(packetBytes) 13344558
attr interpolationmode none
attr source rxPkOk
attr title "packets received OK, sum(packetBytes)"
scalar MeshLAN.host[0].eth[0].mac passedUpPk:count 18943
attr interpolationmode none
attr source packetSentToUpper
attr title "packets passed to higher layer, count"
scalar MeshLAN.host[0].eth[0].mac passedUpPk:sum(packetBytes) 13344558
attr interpolationmode none
attr source packetSentToUpper
attr title "packets passed to higher layer, sum(packetBytes)"
scalar MeshLAN.host[0].eth[0].encap pauseSent:count 0
attr title "pause sent, count"
scalar MeshLAN.host[0].eth[0].encap pauseSent:sum 0
attr title "pause sent, sum"
scalar MeshLAN.host[0].eth[0].encap decapPk:count 18943
attr interpolationmode none
attr source decapPk
attr title "packets decapsulated, count"
scalar MeshLAN.host[0].eth[0].encap decapPk:sum(packetBytes) 13001603
attr interpolationmode none
attr source decapPk
attr title "packets decapsulated, sum(packetBytes)"
scalar MeshLAN.host[0].eth[0].encap encapPk:count 42639
attr interpolationmode none
attr source encapPk
attr title "packets encapsulated, count"
scalar MeshLAN.host[0].eth[0].encap encapPk:sum(packetBytes) 29280232
attr interpolationmode none
attr source encapPk
attr title "packets encapsulated, sum(packetBytes)"
scalar MeshLAN.host[0].pingApp[0] "Pings sent" 183
scalar MeshLAN.host[0].pingApp[0] "ping loss rate (%)" 63.387978142077
scalar MeshLAN.host[0].pingApp[0] "ping out-of-order rate (%)" 0
scalar MeshLAN.host[0].pingApp[0] pingRxSeq:count 51
attr interpolationmode none
attr title "ping rx seq, count"
scalar MeshLAN.host[0].pingApp[0] pingTxSeq:count 137
attr interpolationmode none
attr title "ping tx seq, count"
scalar MeshLAN.host[0].pingApp[0] numOutOfOrderArrivals:last nan
attr interpolationmode none
attr title "ping out-of-order arrivals, last"
scalar MeshLAN.host[0].pingApp[0] numLost:last 116
attr interpolationmode none
attr title "pings lost, last"
scalar MeshLAN.host[0].pingApp[0] rtt:mean 0.0095471031980816
attr interpolationmode none
attr title "ping round-trip time, mean"
attr unit s
scalar MeshLAN.host[0].pingApp[1] "Pings sent" 191
scalar MeshLAN.host[0].pingApp[1] "ping loss rate (%)" 62.303664921466
scalar MeshLAN.host[0].pingApp[1] "ping out-of-order rate (%)" 0
scalar MeshLAN.host[0].pingApp[1] pingRxSeq:count 49
attr interpolationmode none
attr title "ping rx seq, count"
scalar MeshLAN.host[0].pingApp[1] pingTxSeq:count 139
attr interpolationmode none
attr title "ping tx seq, count"
scalar MeshLAN.host[0].pingApp[1] numOutOfOrderArrivals:last nan
attr interpolationmode none
attr title "ping out-of-order arrivals, last"
scalar MeshLAN.host[0].pingApp[1] numLost:last 114
attr interpolationmode none
attr title "pings lost, last"
scalar MeshLAN.host[0].pingApp[1] rtt:mean 0.010437297350592
attr interpolationmode none
attr title "ping round-trip time, mean"
attr unit s
scalar MeshLAN.host[0].pingApp[2] "Pings sent" 193
scalar MeshLAN.host[0].pingApp[2] "ping loss rate (%)" 30.051813471503
scalar MeshLAN.host[0].pingApp[2] "ping out-of-order rate (%)" 0
scalar MeshLAN.host[0].pingApp[2] pingRxSeq:count 106
attr interpolationmode none
attr title "ping rx seq, count"
scalar MeshLAN.host[0].pingApp[2] pingTxSeq:count 150
attr interpolationmode none
attr title "ping tx seq, count"
scalar MeshLAN.host[0].pingApp[2] numOutOfOrderArrivals:last nan
attr interpolationmode none
attr title "ping out-of-order arrivals, last"
scalar MeshLAN.host[0].pingApp[2] numLost:last 58
attr interpolationmode none
attr title "pings lost, last"
scalar MeshLAN.host[0].pingApp[2] rtt:mean 0.0094246957623905
attr interpolationmode none
attr title "ping round-trip time, mean"
attr unit s
scalar MeshLAN.host[0].pingApp[3] "Pings sent" 188
scalar MeshLAN.host[0].pingApp[3] "ping loss rate (%)" 41.489361702128
scalar MeshLAN.host[0].pingApp[3] "ping out-of-order rate (%)" 0
scalar MeshLAN.host[0].pingApp[3] pingRxSeq:count 86
attr interpolationmode none
attr title "ping rx seq, count"
scalar MeshLAN.host[0].pingApp[3] pingTxSeq:count 144
attr interpolationmode none
attr title "ping tx seq, count"
scalar MeshLAN.host[0].pingApp[3] numOutOfOrderArrivals:last nan
attr interpolationmode none
attr title "ping out-of-order arrivals, last"
scalar MeshLAN.host[0].pingApp[3] numLost:last 77
attr interpolationmode none
attr title "pings lost, last"
scalar MeshLAN.host[0].pingApp[3] rtt:mean 0.010118231700709
attr interpolationmode none
attr title "ping round-trip time, mean"
attr unit s
scalar MeshLAN.host[0].pingApp[4] "Pings sent" 197
scalar MeshLAN.host[0].pingApp[4] "ping loss rate (%)" 32.48730964467
scalar MeshLAN.host[0].pingApp[4] "ping out-of-order rate (%)" 0
scalar MeshLAN.host[0].pingApp[4] pingRxSeq:count 101
attr interpolationmode none
attr title "ping rx seq, count"
scalar MeshLAN.host[0].pingApp[4] pingTxSeq:count 148
attr interpolationmode none
attr title "ping tx seq, count"
scalar MeshLAN.host[0].pingApp[4] numOutOfOrderArrivals:last nan
attr interpolationmode none
attr title "ping out-of-order arrivals, last"
scalar MeshLAN.host[0].pingApp[4] numLost:last 63
attr interpolationmode none
attr title "pings lost, last"
scalar MeshLAN.host[0].pingApp[4] rtt:mean 0.0090421185183131
attr interpolationmode none
attr title "ping round-trip time, mean"
attr unit s
scalar MeshLAN.host[0].pingApp[5] "Pings sent" 189
scalar MeshLAN.host[0].pingApp[5] "ping loss rate (%)" 64.550264550265
scalar MeshLAN.host[0].pingApp[5] "ping out-of-order rate (%)" 0
scalar MeshLAN.host[0].pingApp[5] pingRxSeq:count 51
attr interpolationmode none
attr title "ping rx seq, count"
scalar MeshLAN.host[0].pingApp[5] pingTxSeq:count 141
attr interpolationmode none
attr title "ping tx seq, count"
scalar MeshLAN.host[0].pingApp[5] numOutOfOrderArrivals:last nan
attr interpolationmode none
attr title "ping out-of-order arrivals, last"
scalar MeshLAN.host[0].pingApp[5] numLost:last 122
attr interpolationmode none
attr title "pings lost, last"
scalar MeshLAN.host[0].pingApp[5] rtt:mean 0.00942998237982
attr interpolationmode none
attr title "ping round-trip time, mean"
attr unit s
scalar MeshLAN.host[0].pingApp[6] "Pings sent" 193
scalar MeshLAN.host[0].pingApp[6] "ping loss rate (%)" 34.19689119171
scalar MeshLAN.host[0].pingApp[6] "ping out-of-order rate (%)" 0
scalar MeshLAN.host[0].pingApp[6] pingRxSeq:count 99
attr interpolationmode none
attr title "ping rx seq, count"
scalar MeshLAN.host[0].pingApp[6] pingTxSeq:count 143
attr interpolationmode none
attr title "ping tx seq, count"
scalar MeshLAN.host[0].pingApp[6] numOutOfOrderArrivals:last nan
attr interpolationmode none
attr title "ping out-of-order arrivals, last"
scalar MeshLAN.host[0].pingApp[6] numLost:last 66
attr interpolationmode none
attr title "pings lost, last"
scalar MeshLAN.host[0].pingApp[6] rtt:mean 0.0088616610782347
attr interpolationmode none
attr title "ping round-trip time, mean"
attr unit s
scalar MeshLAN.host[0].pingApp[7] "Pings sent" 198
scalar MeshLAN.host[0].pingApp[7] "ping loss rate (%)" 30.808080808081
scalar MeshLAN.host[0].pingApp[7] "ping out-of-order rate (%)" 0
scalar MeshLAN.host[0].pingApp[7] pingRxSeq:count 102
attr interpolationmode none
attr title "ping rx seq, count"
scalar MeshLAN.host[0].pingApp[7] pingTxSeq:count 148
attr interpolationmode none
attr title "ping tx seq, count"
scalar MeshLAN.host[0].pingApp[7] numOutOfOrderArrivals:last nan
attr interpolationmode none
attr title "ping out-of-order arrivals, last"
scalar MeshLAN.host[0].pingApp[7] numLost:last 59
attr interpolationmode none
attr title "pings lost, last"
scalar MeshLAN.host[0].pingApp[7] rtt:mean 0.00999489704321
attr interpolationmode none
attr title "ping round-trip time, mean"
attr unit s
scalar MeshLAN.host[0].pingApp[8] "Pings sent" 190
scalar MeshLAN.host[0].pingApp[8] "ping loss rate (%)" 31.052631578947
scalar MeshLAN.host[0].pingApp[8] "ping out-of-order rate (%)" 0
scalar MeshLAN.host[0].pingApp[8] pingRxSeq:count 96
attr interpolationmode none
attr title "ping rx seq, count"
scalar MeshLAN.host[0].pingApp[8] pingTxSeq:count 145
attr interpolationmode none
attr title "ping tx seq, count"
scalar MeshLAN.host[0].pingApp[8] numOutOfOrderArrivals:last nan
attr interpolationmode none
attr title "ping out-of-order arrivals, last"
scalar MeshLAN.host[0].pingApp[8] numLost:last 59
attr interpolationmode none
attr title "pings lost, last"
scalar MeshLAN.host[0].pingApp[8] rtt:mean 0.006960600545617
attr interpolationmode none
attr title "ping round-trip time, mean"
attr unit s
scalar MeshLAN.host[0].pingApp[9] "Pings sent" 190
scalar MeshLAN.host[0].pingApp[9] "ping loss rate (%)" 66.842105263158
scalar MeshLAN.host[0].pingApp[9] "ping out-of-order rate (%)" 0
scalar MeshLAN.host[0].pingApp[9] pingRxSeq:count 40
attr interpolationmode none
attr title "ping rx seq, count"
scalar MeshLAN.host[0].pingApp[9] pingTxSeq:count 142
attr interpolationmode none
attr title "ping tx seq, count"
scalar MeshLAN.host[0].pingApp[9] numOutOfOrderArrivals:last nan
attr interpolationmode none
attr title "ping out-of-order arrivals, last"
scalar MeshLAN.host[0].pingApp[9] numLost:last 126
attr interpolationmode none
attr title "pings lost, last"
scalar MeshLAN.host[0].pingApp[9] rtt:mean 0.0094952132691111
attr interpolationmode none
attr title "ping round-trip time, mean"
attr unit s
scalar MeshLAN.host[0].pingApp[10] "Pings sent" 199
scalar MeshLAN.host[0].pingApp[10] "ping loss rate (%)" 34.673366834171
scalar MeshLAN.host[0].pingApp[10] "ping out-of-order rate (%)" 0
scalar MeshLAN.host[0].pingApp[10] pingRxSeq:count 102
attr interpolationmode none
attr title "ping rx seq, count"
scalar MeshLAN.host[0].pingApp[10] pingTxSeq:count 151
attr interpolationmode none
attr title "ping tx seq, count"
scalar MeshLAN.host[0].pingApp[10] numOutOfOrderArrivals:last nan
attr interpolationmode none
attr title "ping out-of-order arrivals, last"
scalar MeshLAN.host[0].pingApp[10] numLost:last 69
attr interpolationmode none
attr title "pings lost, last"
scalar MeshLAN.host[0].pingApp[10] rtt:mean 0.0089861513196337
attr interpolationmode none
attr title "ping round-trip time, mean"
attr unit s
scalar MeshLAN.host[0].pingApp[11] "Pings sent" 192
scalar MeshLAN.host[0].pingApp[11] "ping loss rate (%)" 65.625
scalar MeshLAN.host[0].pingApp[11] "ping out-of-order rate (%)" 0
scalar MeshLAN.host[0].pingApp[11] pingRxSeq:count 48
attr interpolationmode none
attr title "ping rx seq, count"
scalar MeshLAN.host[0].pingApp[11] pingTxSeq:count 147
attr interpolationmode none
attr title "ping tx seq, count"
scalar MeshLAN.host[0].pingApp[11] numOutOfOrderArrivals:last nan
attr interpolationmode none
attr title "ping out-of-order arrivals, last"
scalar MeshLAN.host[0].pingApp[11] numLost:last 124
attr interpolationmode none
attr title "pings lost, last"
scalar MeshLAN.host[0].pingApp[11] rtt:mean 0.010135787305809
attr interpolationmode none
attr title "ping round-trip time, mean"
attr unit s
scalar MeshLAN.host[0].pingApp[12] "Pings sent" 196
scalar MeshLAN.host[0].pingApp[12] "ping loss rate (%)" 40.30612244898
scalar MeshLAN.host[0].pingApp[12] "ping out-of-order rate (%)" 0
scalar MeshLAN.host[0].pingApp[12] pingRxSeq:count 94
attr interpolationmode none
attr title "ping rx seq, count"
scalar MeshLAN.host[0].pingApp[12] pingTxSeq:count 151
attr interpolationmode none
attr title "ping tx seq, count"
scalar MeshLAN.host[0].pingApp[12] numOutOfOrderArrivals:last nan
attr interpolationmode none
attr title "ping out-of-order arrivals, last"
scalar MeshLAN.host[0].pingApp[12] numLost:last 79
attr interpolationmode none
attr title "pings lost, last"
scalar MeshLAN.host[0].pingApp[12] rtt:mean 0.0089941122047527
attr interpolationmode none
attr title "ping round-trip time, mean"
attr unit s
scalar MeshLAN.host[0].pingApp[13] "Pings sent" 194
scalar MeshLAN.host[0].pingApp[13] "ping loss rate (%)" 61.855670103093
scalar MeshLAN.host[0].pingApp[13] "ping out-of-order rate (%)" 0
scalar MeshLAN.host[0].pingApp[13] pingRxSeq:count 52
attr interpolationmode none
attr title "ping rx seq, count"
scalar MeshLAN.host[0].pingApp[13] pingTxSeq:count 144
attr interpolationmode none
attr title "ping tx seq, count"
scalar MeshLAN.host[0].pingApp[13] numOutOfOrderArrivals:last nan
attr interpolationmode none
attr title "ping out-of-order arrivals, last"
scalar MeshLAN.host[0].pingApp[13] numLost:last 120
attr interpolationmode none
attr title "pings lost, last"
scalar MeshLAN.host[0].pingApp[13] rtt:mean 0.00898634843732
attr interpolationmode none
attr title "ping round-trip time, mean"
attr unit s
scalar MeshLAN.host[0].pingApp[14] "Pings sent" 181
scalar MeshLAN.host[0].pingApp[14] "ping loss rate (%)" 36.46408839779
scalar MeshLAN.host[0].pingApp[14] "ping out-of-order rate (%)" 0
scalar MeshLAN.host[0].pingApp[14] pingRxSeq:count 87
attr interpolationmode none
attr title "ping rx seq, count"
scalar MeshLAN.host[0].pingApp[14] pingTxSeq:count 135
attr interpolationmode none
attr title "ping tx seq, count"
scalar MeshLAN.host[0].pingApp[14] numOutOfOrderArrivals:last nan
attr interpolationmode none
attr title "ping out-of-order arrivals, last"
scalar MeshLAN.host[0].pingApp[14] numLost:last 66
attr interpolationmode none
attr title "pings lost, last"
scalar MeshLAN.host[0].pingApp[14] rtt:mean 0.0090478141023953
attr interpolationmode none
attr title "ping round-trip time, mean"
attr unit s
scalar MeshLAN.host[0].pingApp[15] "Pings sent" 194
scalar MeshLAN.host[0].pingApp[15] "ping loss rate (%)" 31.958762886598
scalar MeshLAN.host[0].pingApp[15] "ping out-of-order rate (%)" 0.51546391752577
scalar MeshLAN.host[0].pingApp[15] pingRxSeq:count 107
attr interpolationmode none
attr title "ping rx seq, count"
scalar MeshLAN.host[0].pingApp[15] pingTxSeq:count 151
attr interpolationmode none
attr title "ping tx seq, count"
scalar MeshLAN.host[0].pingApp[15] numOutOfOrderArrivals:last 1
attr interpolationmode none
attr title "ping out-of-order arrivals, last"
scalar MeshLAN.host[0].pingApp[15] numLost:last 62
attr interpolationmode none
attr title "pings lost, last"
scalar MeshLAN.host[0].pingApp[15] rtt:mean 0.0087879167200392
attr interpolationmode none
attr title "ping round-trip time, mean"
attr unit s
scalar MeshLAN.host[0].pingApp[16] "Pings sent" 188
scalar MeshLAN.host[0].pingApp[16] "ping loss rate (%)" 31.382978723404
scalar MeshLAN.host[0].pingApp[16] "ping out-of-order rate (%)" 0
scalar MeshLAN.host[0].pingApp[16] pingRxSeq:count 99
attr interpolationmode none
attr title "ping rx seq, count"
scalar MeshLAN.host[0].pingApp[16] pingTxSeq:count 140
attr interpolationmode none
attr title "ping tx seq, count"
scalar MeshLAN.host[0].pingApp[16] numOutOfOrderArrivals:last nan
attr interpolationmode none
attr title "ping out-of-order arrivals, last"
scalar MeshLAN.host[0].pingApp[16] numLost:last 59
attr interpolationmode none
attr title "pings lost, last"
scalar MeshLAN.host[0].pingApp[16] rtt:mean 0.0088730723695833
attr interpolationmode none
attr title "ping round-trip time, mean"
attr unit s
scalar MeshLAN.host[0].pingApp[17] "Pings sent" 183
scalar MeshLAN.host[0].pingApp[17] "ping loss rate (%)" 34.426229508197
scalar MeshLAN.host[0].pingApp[17] "ping out-of-order rate (%)" 0
scalar MeshLAN.host[0].pingApp[17] pingRxSeq:count 89
attr interpolationmode none
attr title "ping rx seq, count"
scalar MeshLAN.host[0].pingApp[17] pingTxSeq:count 138
attr interpolationmode none
attr title "ping tx seq, count"
scalar MeshLAN.host[0].pingApp[17] numOutOfOrderArrivals:last nan
attr interpolationmode none
attr title "ping out-of-order arrivals, last"
scalar MeshLAN.host[0].pingApp[17] numLost:last 63
attr interpolationmode none
attr title "pings lost, last"
scalar MeshLAN.host[0].pingApp[17] rtt:mean 0.0089716493026404
attr interpolationmode none
attr title "ping round-trip time, mean"
attr unit s
scalar MeshLAN.host[0].pingApp[18] "Pings sent" 193
scalar MeshLAN.host[0].pingApp[18] "ping loss rate (%)" 70.984455958549
scalar MeshLAN.host[0].pingApp[18] "ping out-of-order rate (%)" 0
scalar MeshLAN.host[0].pingApp[18] pingRxSeq:count 41
attr interpolationmode none
attr title "ping rx seq, count"
scalar MeshLAN.host[0].pingApp[18] pingTxSeq:count 151
attr interpolationmode none
attr title "ping tx seq, count"
scalar MeshLAN.host[0].pingApp[18] numOutOfOrderArrivals:last nan
attr interpolationmode none
attr title "ping out-of-order arrivals, last"
scalar MeshLAN.host[0].pingApp[18] numLost:last 136
attr interpolationmode none
attr title "pings lost, last"
scalar MeshLAN.host[0].pingApp[18] rtt:mean 0.010425921870171
attr interpolationmode none
attr title "ping round-trip time, mean"
attr unit s
scalar MeshLAN.host[0].pingApp[19] "Pings sent" 205
scalar MeshLAN.host[0].pingApp[19] "ping loss rate (%)" 67.80487804878
scalar MeshLAN.host[0].pingApp[19] "ping out-of-order rate (%)" 0
scalar MeshLAN.host[0].pingApp[19] pingRxSeq:count 51
attr interpolationmode none
attr title "ping rx seq, count"
scalar MeshLAN.host[0].pingApp[19] pingTxSeq:count 162
attr interpolationmode none
attr title "ping tx seq, count"
scalar MeshLAN.host[0].pingApp[19] numOutOfOrderArrivals:last nan
attr interpolationmode none
attr title "ping out-of-order arrivals, last"
scalar MeshLAN.host[0].pingApp[19] numLost:last 139
attr interpolationmode none
attr title "pings lost, last"
scalar MeshLAN.host[0].pingApp[19] rtt:mean 0.00942458157628
attr interpolationmode none
attr title "ping round-trip time, mean"
attr unit s
scalar MeshLAN.host[0].pingApp[20] "Pings sent" 188
scalar MeshLAN.host[0].pingApp[20] "ping loss rate (%)" 65.425531914894
scalar MeshLAN.host[0].pingApp[20] "ping out-of-order rate (%)" 0.53191489361702
scalar MeshLAN.host[0].pingApp[20] pingRxSeq:count 49
attr interpolationmode none
attr title "ping rx seq, count"
scalar MeshLAN.host[0].pingApp[20] pingTxSeq:count 141
attr interpolationmode none
attr title "ping tx seq, count"
scalar MeshLAN.host[0].pingApp[20] numOutOfOrderArrivals:last 1
attr interpolationmode none
attr title "ping out-of-order arrivals, last"
scalar MeshLAN.host[0].pingApp[20] numLost:last 115
attr interpolationmode none
attr title "pings lost, last"
scalar MeshLAN.host[0].pingApp[20] rtt:mean 0.0092884207036444
attr interpolationmode none
attr title "ping round-trip time, mean"
attr unit s
scalar MeshLAN.host[0].pingApp[21] "Pings sent" 190
scalar MeshLAN.host[0].pingApp[21] "ping loss rate (%)" 30
scalar MeshLAN.host[0].pingApp[21] "ping out-of-order rate (%)" 0
scalar MeshLAN.host[0].pingApp[21] pingRxSeq:count 95
attr interpolationmode none
attr title "ping rx seq, count"
scalar MeshLAN.host[0].pingApp[21] pingTxSeq:count 137
attr interpolationmode none
attr title "ping tx seq, count"
scalar MeshLAN.host[0].pingApp[21] numOutOfOrderArrivals:last nan
attr interpolationmode none
attr title "ping out-of-order arrivals, last"
scalar MeshLAN.host[0].pingApp[21] numLost:last 57
attr interpolationmode none
attr title "pings lost, last"
scalar MeshLAN.host[0].pingApp[21] rtt:mean 0.0091201248330109
attr interpolationmode none
attr title "ping round-trip time, mean"
attr unit s
scalar MeshLAN.host[0].pingApp[22] "Pings sent" 190
scalar MeshLAN.host[0].pingApp[22] "ping loss rate (%)" 65.263157894737
scalar MeshLAN.host[0].pingApp[22] "ping out-of-order rate (%)" 0
scalar MeshLAN.host[0].pingApp[22] pingRxSeq:count 47
attr interpolationmode none
attr title "ping rx seq, count"
scalar MeshLAN.host[0].pingApp[22] pingTxSeq:count 140
attr interpolationmode none
attr title "ping tx seq, count"
scalar MeshLAN.host[0].pingApp[22] numOutOfOrderArrivals:last nan
attr interpolationmode none
attr title "ping out-of-order arrivals, last"
scalar MeshLAN.host[0].pingApp[22] numLost:last 124
attr interpolationmode none
attr title "pings lost, last"
scalar MeshLAN.host[0].pingApp[22] rtt:mean 0.0092809365854783
attr interpolationmode none
attr title "ping round-trip time, mean"
attr unit s
scalar MeshLAN.host[0].pingApp[23] "Pings sent" 202
scalar MeshLAN.host[0].pingApp[23] "ping loss rate (%)" 35.148514851485
scalar MeshLAN.host[0].pingApp[23] "ping out-of-order rate (%)" 0
scalar MeshLAN.host[0].pingApp[23] pingRxSeq:count 98
attr interpolationmode none
attr title "ping rx seq, count"
scalar MeshLAN.host[0].pingApp[23] pingTxSeq:count 155
attr interpolationmode none
attr title "ping tx seq, count"
scalar MeshLAN.host[0].pingApp[23] numOutOfOrderArrivals:last nan
attr interpolationmode none
attr title "ping out-of-order arrivals, last"
scalar MeshLAN.host[0].pingApp[23] numLost:last 71
attr interpolationmode none
attr title "pings lost, last"
scalar MeshLAN.host[0].pingApp[23] rtt:mean 0.0075344229289278
attr interpolationmode none
attr title "ping round-trip time, mean"
attr unit s
scalar MeshLAN.host[0].pingApp[24] "Pings sent" 193
scalar MeshLAN.host[0].pingApp[24] "ping loss rate (%)" 65.284974093264
scalar MeshLAN.host[0].pingApp[24] "ping out-of-order rate (%)" 0
scalar MeshLAN.host[0].pingApp[24] pingRxSeq:count 50
attr interpolationmode none
attr title "ping rx seq, count"
scalar MeshLAN.host[0].pingApp[24] pingTxSeq:count 143
attr interpolationmode none
attr title "ping tx seq, count"
scalar MeshLAN.host[0].pingApp[24] numOutOfOrderArrivals:last nan
attr interpolationmode none
attr title "ping out-of-order arrivals, last"
scalar MeshLAN.host[0].pingApp[24] numLost:last 124
attr interpolationmode none
attr title "pings lost, last"
scalar MeshLAN.host[0].pingApp[24] rtt:mean 0.009708338369449
attr interpolationmode none
attr title "ping round-trip time, mean"
attr unit s
scalar MeshLAN.host[0].pingApp[25] "Pings sent" 194
scalar MeshLAN.host[0].pingApp[25] "ping loss rate (%)" 65.463917525773
scalar MeshLAN.host[0].pingApp[25] "ping out-of-order rate (%)" 0
scalar MeshLAN.host[0].pingApp[25] pingRxSeq:count 50
attr interpolationmode none
attr title "ping rx seq, count"
scalar MeshLAN.host[0].pingApp[25] pingTxSeq:count 154
attr interpolationmode none
attr title "ping tx seq, count"
scalar MeshLAN.host[0].pingApp[25] numOutOfOrderArrivals:last nan
attr interpolationmode none
attr title "ping out-of-order arrivals, last"
scalar MeshLAN.host[0].pingApp[25] numLost:last 125
attr interpolationmode none
attr title "pings lost, last"
scalar MeshLAN.host[0].pingApp[25] rtt:mean 0.0091516133290204
attr interpolationmode none
attr title "ping round-trip time, mean"
attr unit s
scalar MeshLAN.host[0].pingApp[26] "Pings sent" 185
scalar MeshLAN.host[0].pingApp[26] "ping loss rate (%)" 32.972972972973
scalar MeshLAN.host[0].pingApp[26] "ping out-of-order rate (%)" 0
scalar MeshLAN.host[0].pingApp[26] pingRxSeq:count 98
attr interpolationmode none
attr title "ping rx seq, count"
scalar MeshLAN.host[0].pingApp[26] pingTxSeq:count 141
attr interpolationmode none
attr title "ping tx seq, count"
scalar MeshLAN.host[0].pingApp[26] numOutOfOrderArrivals:last nan
attr interpolationmode none
attr title "ping out-of-order arrivals, last"
scalar MeshLAN.host[0].pingApp[26] numLost:last 61
attr interpolationmode none
attr title "pings lost, last"
scalar MeshLAN.host[0].pingApp[26] rtt:mean 0.0073607075850625
attr interpolationmode none
attr title "ping round-trip time, mean"
attr unit s
scalar MeshLAN.host[0].pingApp[27] "Pings sent" 201
scalar MeshLAN.host[0].pingApp[27] "ping loss rate (%)" 71.144278606965
scalar MeshLAN.host[0].pingApp[27] "ping out-of-order rate (%)" 0
scalar MeshLAN.host[0].pingApp[27] pingRxSeq:count 44
attr interpolationmode none
attr title "ping rx seq, count"
scalar MeshLAN.host[0].pingApp[27] pingTxSeq:count 152
attr interpolationmode none
attr title "ping tx seq, count"
scalar MeshLAN.host[0].pingApp[27] numOutOfOrderArrivals:last nan
attr interpolationmode none
attr title "ping out-of-order arrivals, last"
scalar MeshLAN.host[0].pingApp[27] numLost:last 142
attr interpolationmode none
attr title "pings lost, last"
scalar MeshLAN.host[0].pingApp[27] rtt:mean 0.0095804777086977
attr interpolationmode none
attr title "ping round-trip time, mean"
attr unit s
scalar MeshLAN.host[0].pingApp[28] "Pings sent" 190
scalar MeshLAN.host[0].pingApp[28] "ping loss rate (%)" 69.473684210526
scalar MeshLAN.host[0].pingApp[28] "ping out-of-order rate (%)" 0
scalar MeshLAN.host[0].pingApp[28] pingRxSeq:count 49
attr interpolationmode none
attr title "ping rx seq, count"
scalar MeshLAN.host[0].pingApp[28] pingTxSeq:count 141
attr interpolationmode none
attr title "ping tx seq, count"
scalar MeshLAN.host[0].pingApp[28] numOutOfOrderArrivals:last nan
attr interpolationmode none
attr title "ping out-of-order arrivals, last"
scalar MeshLAN.host[0].pingApp[28] numLost:last 132
attr interpolationmode none
attr title "pings lost, last"
scalar MeshLAN.host[0].pingApp[28] rtt:mean 0.0090976708050612
attr interpolationmode none
attr title "ping round-trip time, mean"
attr unit s
scalar MeshLAN.host[0].pingApp[29] "Pings sent" 198
scalar MeshLAN.host[0].pingApp[29] "ping loss rate (%)" 29.292929292929
scalar MeshLAN.host[0].pingApp[29] "ping out-of-order rate (%)" 0
scalar MeshLAN.host[0].pingApp[29] pingRxSeq:count 106
attr interpolationmode none
attr title "ping rx seq, count"
scalar MeshLAN.host[0].pingApp[29] pingTxSeq:count 151
attr interpolationmode none
attr title "ping tx seq, count"
scalar MeshLAN.host[0].pingApp[29] numOutOfOrderArrivals:last nan
attr interpolationmode none
attr title "ping out-of-order arrivals, last"
scalar MeshLAN.host[0].pingApp[29] numLost:last 58
attr interpolationmode none
attr title "pings lost, last"
scalar MeshLAN.host[0].pingApp[29] rtt:mean 0.0091810472252136
attr interpolationmode none
attr title "ping round-trip time, mean"
attr unit s
scalar MeshLAN.host[0].pingApp[30] "Pings sent" 182
scalar MeshLAN.host[0].pingApp[30] "ping loss rate (%)" 35.164835164835
scalar MeshLAN.host[0].pingApp[30] "ping out-of-order rate (%)" 0
scalar MeshLAN.host[0].pingApp[30] pingRxSeq:count 94
attr interpolationmode none
attr title "ping rx seq, count"
scalar MeshLAN.host[0].pingApp[30] pingTxSeq:count 139
attr interpolationmode none
attr title "ping tx seq, count"
scalar MeshLAN.host[0].pingApp[30] numOutOfOrderArrivals:last nan
attr interpolationmode none
attr title "ping out-of-order arrivals, last"
scalar MeshLAN.host[0].pingApp[30] numLost:last 63
attr interpolationmode none
attr title "pings lost, last"
scalar MeshLAN.host[0].pingApp[30] rtt:mean 0.0075448224533297
attr interpolationmode none
attr title "ping round-trip time, mean"
attr unit s
scalar MeshLAN.host[0].pingApp[31] "Pings sent" 199
scalar MeshLAN.host[0].pingApp[31] "ping loss rate (%)" 35.678391959799
scalar MeshLAN.host[0].pingApp[31] "ping out-of-order rate (%)" 0
scalar MeshLAN.host[0].pingApp[31] pingRxSeq:count 97
attr interpolationmode none
attr title "ping rx seq, count"
scalar MeshLAN.host[0].pingApp[31] pingTxSeq:count 151
attr interpolationmode none
attr title "ping tx seq, count"
scalar MeshLAN.host[0].pingApp[31] numOutOfOrderArrivals:last nan
attr interpolationmode none
attr title "ping out-of-order arrivals, last"
scalar MeshLAN.host[0].pingApp[31] numLost:last 71
attr interpolationmode none
attr title "pings lost, last"
scalar MeshLAN.host[0].pingApp[31] rtt:mean 0.0088930949924421
attr interpolationmode none
attr title "ping round-trip time, mean"
attr unit s
scalar MeshLAN.host[0].pingApp[32] "Pings sent" 189
scalar MeshLAN.host[0].pingApp[32] "ping loss rate (%)" 64.550264550265
scalar MeshLAN.host[0].pingApp[32] "ping out-of-order rate (%)" 0
scalar MeshLAN.host[0].pingApp[32] pingRxSeq:count 53
attr interpolationmode none
attr title "ping rx seq, count"
scalar MeshLAN.host[0].pingApp[32] pingTxSeq:count 145
attr interpolationmode none
attr title "ping tx seq, count"
scalar MeshLAN.host[0].pingApp[32] numOutOfOrderArrivals:last nan
attr interpolationmode none
attr title "ping out-of-order arrivals, last"
scalar MeshLAN.host[0].pingApp[32] numLost:last 122
attr interpolationmode none
attr title "pings lost, last"
scalar MeshLAN.host[0].pingApp[32] rtt:mean 0.008995548045451
attr interpolationmode none
attr title "ping round-trip time, mean"
attr unit s
scalar MeshLAN.host[0].pingApp[33] "Pings sent" 201
scalar MeshLAN.host[0].pingApp[33] "ping loss rate (%)" 34.328358208955
scalar MeshLAN.host[0].pingApp[33] "ping out-of-order rate (%)" 0
scalar MeshLAN.host[0].pingApp[33] pingRxSeq:count 96
attr interpolationmode none
attr title "ping rx seq, count"
scalar MeshLAN.host[0].pingApp[33] pingTxSeq:count 147
attr interpolationmode none
attr title "ping tx seq, count"
scalar MeshLAN.host[0].pingApp[33] numOutOfOrderArrivals:last nan
attr interpolationmode none
attr title "ping out-of-order arrivals, last"
scalar MeshLAN.host[0].pingApp[33] numLost:last 68
attr interpolationmode none
attr title "pings lost, last"
scalar MeshLAN.host[0].pingApp[33] rtt:mean 0.0091139604483958
attr interpolationmode none
attr title "ping round-trip time, mean"
attr unit s
scalar MeshLAN.host[0].pingApp[34] "Pings sent" 192
scalar MeshLAN.host[0].pingApp[34] "ping loss rate (%)" 67.708333333333
scalar MeshLAN.host[0].pingApp[34] "ping out-of-order rate (%)" 0
scalar MeshLAN.host[0].pingApp[34] pingRxSeq:count 54
attr interpolationmode none
attr title "ping rx seq, count"
scalar MeshLAN.host[0].pingApp[34] pingTxSeq:count 148
attr interpolationmode none
attr title "ping tx seq, count"
scalar MeshLAN.host[0].pingApp[34] numOutOfOrderArrivals:last nan
attr interpolationmode none
attr title "ping out-of-order arrivals, last"
scalar MeshLAN.host[0].pingApp[34] numLost:last 127
attr interpolationmode none
attr title "pings lost, last"
scalar MeshLAN.host[0].pingApp[34] rtt:mean 0.0099873623917547
attr interpolationmode none
attr title "ping round-trip time, mean"
attr unit s
scalar MeshLAN.host[0].pingApp[35] "Pings sent" 213
scalar MeshLAN.host[0].pingApp[35] "ping loss rate (%)" 32.863849765258
scalar MeshLAN.host[0].pingApp[35] "ping out-of-order rate (%)" 0
scalar MeshLAN.host[0].pingApp[35] pingRxSeq:count 110
attr interpolationmode none
attr title "ping rx seq, count"
scalar MeshLAN.host[0].pingApp[35] pingTxSeq:count 163
attr interpolationmode none
attr title "ping tx seq, count"
scalar MeshLAN.host[0].pingApp[35] numOutOfOrderArrivals:last nan
attr interpolationmode none
attr title "ping out-of-order arrivals, last"
scalar MeshLAN.host[0].pingApp[35] numLost:last 70
attr interpolationmode none
attr title "pings lost, last"
scalar MeshLAN.host[0].pingApp[35] rtt:mean 0.0087483479749358
attr interpolationmode none
attr title "ping round-trip time, mean"
attr unit s
scalar MeshLAN.host[0].pingApp[36] "Pings sent" 192
scalar MeshLAN.host[0].pingApp[36] "ping loss rate (%)" 66.666666666667
scalar MeshLAN.host[0].pingApp[36] "ping out-of-order rate (%)" 0
scalar MeshLAN.host[0].pingApp[36] pingRxSeq:count 49
attr interpolationmode none
attr title "ping rx seq, count"
scalar MeshLAN.host[0].pingApp[36] pingTxSeq:count 143
attr interpolationmode none
attr title "ping tx seq, count"
scalar MeshLAN.host[0].pingApp[36] numOutOfOrderArrivals:last nan
attr interpolationmode none
attr title "ping out-of-order arrivals, last"
scalar MeshLAN.host[0].pingApp[36] numLost:last 126
attr interpolationmode none
attr title "pings lost, last"
scalar MeshLAN.host[0].pingApp[36] rtt:mean 0.010459463870083
attr interpolationmode none
attr title "ping round-trip time, mean"
attr unit s
scalar MeshLAN.host[0].pingApp[37] "Pings sent" 196
scalar MeshLAN.host[0].pingApp[37] "ping loss rate (%)" 35.714285714286
scalar MeshLAN.host[0].pingApp[37] "ping out-of-order rate (%)" 0
scalar MeshLAN.host[0].pingApp[37] pingRxSeq:count 97
attr interpolationmode none
attr title "ping rx seq, count"
scalar MeshLAN.host[0].pingApp[37] pingTxSeq:count 149
attr interpolationmode none
attr title "ping tx seq, count"
scalar MeshLAN.host[0].pingApp[37] numOutOfOrderArrivals:last nan
attr interpolationmode none
attr title "ping out-of-order arrivals, last"
scalar MeshLAN.host[0].pingApp[37] numLost:last 70
attr interpolationmode none
attr title "pings lost, last"
scalar MeshLAN.host[0].pingApp[37] rtt:mean 0.0094321923771613
attr interpolationmode none
attr title "ping round-trip time, mean"
attr unit s
scalar MeshLAN.host[0].pingApp[38] "Pings sent" 199
scalar MeshLAN.host[0].pingApp[38] "ping loss rate (%)" 68.844221105528
scalar MeshLAN.host[0].pingApp[38] "ping out-of-order rate (%)" 0
scalar MeshLAN.host[0].pingApp[38] pingRxSeq:count 47
attr interpolationmode none
attr title "ping rx seq, count"
scalar MeshLAN.host[0].pingApp[38] pingTxSeq:count 143
attr interpolationmode none
attr title "ping tx seq, count"
scalar MeshLAN.host[0].pingApp[38] numOutOfOrderArrivals:last nan
attr interpolationmode none
attr title "ping out-of-order arrivals, last"
scalar MeshLAN.host[0].pingApp[38] numLost:last 128
attr interpolationmode none
attr title "pings lost, last"
scalar MeshLAN.host[0].pingApp[38] rtt:mean 0.009059281031617
attr interpolationmode none
attr title "ping round-trip time, mean"
attr unit s
scalar MeshLAN.host[0].pingApp[39] "Pings sent" 197
scalar MeshLAN.host[0].pingApp[39] "ping loss rate (%)" 69.543147208122
scalar MeshLAN.host[0].pingApp[39] "ping out-of-order rate (%)" 0
scalar MeshLAN.host[0].pingApp[39] pingRxSeq:count 41
attr interpolationmode none
attr title "ping rx seq, count"
scalar MeshLAN.host[0].pingApp[39] pingTxSeq:count 149
attr interpolationmode none
attr title "ping tx seq, count"
scalar MeshLAN.host[0].pingApp[39] numOutOfOrderArrivals:last nan
attr interpolationmode none
attr title "ping out-of-order arrivals, last"
scalar MeshLAN.host[0].pingApp[39] numLost:last 135
attr interpolationmode none
attr title "pings lost, last"
scalar MeshLAN.host[0].pingApp[39] rtt:mean 0.009586970081
attr interpolationmode none
attr title "ping round-trip time, mean"
attr unit s
scalar MeshLAN.host[0].pingApp[40] "Pings sent" 186
scalar MeshLAN.host[0].pingApp[40] "ping loss rate (%)" 34.408602150538
scalar MeshLAN.host[0].pingApp[40] "ping out-of-order rate (%)" 0
scalar MeshLAN.host[0].pingApp[40] pingRxSeq:count 91
attr interpolationmode none
attr title "ping rx seq, count"
scalar MeshLAN.host[0].pingApp[40] pingTxSeq:count 140
attr interpolationmode none
attr title "ping tx seq, count"
scalar MeshLAN.host[0].pingApp[40] numOutOfOrderArrivals:last nan
attr interpolationmode none
attr title "ping out-of-order arrivals, last"
scalar MeshLAN.host[0].pingApp[40] numLost:last 63
attr interpolationmode none
attr title "pings lost, last"
scalar MeshLAN.host[0].pingApp[40] rtt:mean 0.0078621195038222
attr interpolationmode none
attr title "ping round-trip time, mean"
attr unit s
scalar MeshLAN.host[0].pingApp[41] "Pings sent" 194
scalar MeshLAN.host[0].pingApp[41] "ping loss rate (%)" 74.742268041237
scalar MeshLAN.host[0].pingApp[41] "ping out-of-order rate (%)" 0
scalar MeshLAN.host[0].pingApp[41] pingRxSeq:count 36
attr interpolationmode none
attr title "ping rx seq, count"
scalar MeshLAN.host[0].pingApp[41] pingTxSeq:count 148
attr interpolationmode none
attr title "ping tx seq, count"
scalar MeshLAN.host[0].pingApp[41] numOutOfOrderArrivals:last nan
attr interpolationmode none
attr title "ping out-of-order arrivals, last"
scalar MeshLAN.host[0].pingApp[41] numLost:last 139
attr interpolationmode none
attr title "pings lost, last"
scalar MeshLAN.host[0].pingApp[41] rtt:mean 0.0092386874162286
attr interpolationmode none
attr title "ping round-trip time, mean"
attr unit s
scalar MeshLAN.host[0].pingApp[42] "Pings sent" 184
scalar MeshLAN.host[0].pingApp[42] "ping loss rate (%)" 30.434782608696
scalar MeshLAN.host[0].pingApp[42] "ping out-of-order rate (%)" 0
scalar MeshLAN.host[0].pingApp[42] pingRxSeq:count 98
attr interpolationmode none
attr title "ping rx seq, count"
scalar MeshLAN.host[0].pingApp[42] pingTxSeq:count 139
attr interpolationmode none
attr title "ping tx seq, count"
scalar MeshLAN.host[0].pingApp[42] numOutOfOrderArrivals:last nan
attr interpolationmode none
attr title "ping out-of-order arrivals, last"
scalar MeshLAN.host[0].pingApp[42] numLost:last 56
attr interpolationmode none
attr title "pings lost, last"
scalar MeshLAN.host[0].pingApp[42] rtt:mean 0.0089369448318878
attr interpolationmode none
attr title "ping round-trip time, mean"
attr unit s
scalar MeshLAN.host[0].pingApp[43] "Pings sent" 200
scalar MeshLAN.host[0].pingApp[43] "ping loss rate (%)" 32.5
scalar MeshLAN.host[0].pingApp[43] "ping out-of-order rate (%)" 0
scalar MeshLAN.host[0].pingApp[43] pingRxSeq:count 102
attr interpolationmode none
attr title "ping rx seq, count"
scalar MeshLAN.host[0].pingApp[43] pingTxSeq:count 151
attr interpolationmode none
attr title "ping tx seq, count"
scalar MeshLAN.host[0].pingApp[43] numOutOfOrderArrivals:last nan
attr interpolationmode none
attr title "ping out-of-order arrivals, last"
scalar MeshLAN.host[0].pingApp[43] numLost:last 65
attr interpolationmode none
attr title "pings lost, last"
scalar MeshLAN.host[0].pingApp[43] rtt:mean 0.0079966689574141
attr interpolationmode none
attr title "ping round-trip time, mean"
attr unit s
scalar MeshLAN.host[0].pingApp[44] "Pings sent" 192
scalar MeshLAN.host[0].pingApp[44] "ping loss rate (%)" 67.1875
scalar MeshLAN.host[0].pingApp[44] "ping out-of-order rate (%)" 0
scalar MeshLAN.host[0].pingApp[44] pingRxSeq:count 52
attr interpolationmode none
attr title "ping rx seq, count"
scalar MeshLAN.host[0].pingApp[44] pingTxSeq:count 145
attr interpolationmode none
attr title "ping tx seq, count"
scalar MeshLAN.host[0].pingApp[44] numOutOfOrderArrivals:last nan
attr interpolationmode none
attr title "ping out-of-order arrivals, last"
scalar MeshLAN.host[0].pingApp[44] numLost:last 128
attr interpolationmode none
attr title "pings lost, last"
scalar MeshLAN.host[0].pingApp[44] rtt:mean 0.010405050370078
attr interpolationmode none
attr title "ping round-trip time, mean"
attr unit s
scalar MeshLAN.host[0].pingApp[45] "Pings sent" 200
scalar MeshLAN.host[0].pingApp[45] "ping loss rate (%)" 68.5
scalar MeshLAN.host[0].pingApp[45] "ping out-of-order rate (%)" 0
scalar MeshLAN.host[0].pingApp[45] pingRxSeq:count 48
attr interpolationmode none
attr title "ping rx seq, count"
scalar MeshLAN.host[0].pingApp[45] pingTxSeq:count 150
attr interpolationmode none
attr title "ping tx seq, count"
scalar MeshLAN.host[0].pingApp[45] numOutOfOrderArrivals:last nan
attr interpolationmode none
attr title "ping out-of-order arrivals, last"
scalar MeshLAN.host[0].pingApp[45] numLost:last 135
attr interpolationmode none
attr title "pings lost, last"
scalar MeshLAN.host[0].pingApp[45] rtt:mean 0.010150571163937
attr interpolationmode none
attr title "ping round-trip time, mean"
attr unit s
scalar MeshLAN.host[0].pingApp[46] "Pings sent" 191
scalar MeshLAN.host[0].pingApp[46] "ping loss rate (%)" 68.586387434555
scalar MeshLAN.host[0].pingApp[46] "ping out-of-order rate (%)" 0
scalar MeshLAN.host[0].pingApp[46] pingRxSeq:count 47
attr interpolationmode none
attr title "ping rx seq, count"
scalar MeshLAN.host[0].pingApp[46] pingTxSeq:count 143
attr interpolationmode none
attr title "ping tx seq, count"
scalar MeshLAN.host[0].pingApp[46] numOutOfOrderArrivals:last nan
attr interpolationmode none
attr title "ping out-of-order arrivals, last"
scalar MeshLAN.host[0].pingApp[46] numLost:last 128
attr interpolationmode none
attr title "pings lost, last"
scalar MeshLAN.host[0].pingApp[46] rtt:mean 0.0096922619045778
attr interpolationmode none
attr title "ping round-trip time, mean"
attr unit s
scalar MeshLAN.host[0].pingApp[47] "Pings sent" 195
scalar MeshLAN.host[0].pingApp[47] "ping loss rate (%)" 36.923076923077
scalar MeshLAN.host[0].pingApp[47] "ping out-of-order rate (%)" 0.51282051282051
scalar MeshLAN.host[0].pingApp[47] pingRxSeq:count 96
attr interpolationmode none
attr title "ping rx seq, count"
scalar MeshLAN.host[0].pingApp[47] pingTxSeq:count 152
attr interpolationmode none
attr title "ping tx seq, count"
scalar MeshLAN.host[0].pingApp[47] numOutOfOrderArrivals:last 1
attr interpolationmode none
attr title "ping out-of-order arrivals, last"
scalar MeshLAN.host[0].pingApp[47] numLost:last 72
attr interpolationmode none
attr title "pings lost, last"
scalar MeshLAN.host[0].pingApp[47] rtt:mean 0.0078000320765652
attr interpolationmode none
attr title "ping round-trip time, mean"
attr unit s
scalar MeshLAN.host[0].pingApp[48] "Pings sent" 192
scalar MeshLAN.host[0].pingApp[48] "ping loss rate (%)" 37.5
scalar MeshLAN.host[0].pingApp[48] "ping out-of-order rate (%)" 0
scalar MeshLAN.host[0].pingApp[48] pingRxSeq:count 89
attr interpolationmode none
attr title "ping rx seq, count"
scalar MeshLAN.host[0].pingApp[48] pingTxSeq:count 149
attr interpolationmode none
attr title "ping tx seq, count"
scalar MeshLAN.host[0].pingApp[48] numOutOfOrderArrivals:last nan
attr interpolationmode none
attr title "ping out-of-order arrivals, last"
scalar MeshLAN.host[0].pingApp[48] numLost:last 72
attr interpolationmode none
attr title "pings lost, last"
scalar MeshLAN.host[0].pingApp[48] rtt:mean 0.0091418376776782
attr interpolationmode none
attr title "ping round-trip time, mean"
attr unit s
scalar MeshLAN.host[0].pingApp[49] "Pings sent" 200
scalar MeshLAN.host[0].pingApp[49] "ping loss rate (%)" 33.5
scalar MeshLAN.host[0].pingApp[49] "ping out-of-order rate (%)" 0
scalar MeshLAN.host[0].pingApp[49] pingRxSeq:count 101
attr interpolationmode none
attr title "ping rx seq, count"
scalar MeshLAN.host[0].pingApp[49] pingTxSeq:count 153
attr interpolationmode none
attr title "ping tx seq, count"
scalar MeshLAN.host[0].pingApp[49] numOutOfOrderArrivals:last nan
attr interpolationmode none
attr title "ping out-of-order arrivals, last"
scalar MeshLAN.host[0].pingApp[49] numLost:last 67
attr interpolationmode none
attr title "pings lost, last"
scalar MeshLAN.host[0].pingApp[49] rtt:mean 0.00806359762743
attr interpolationmode none
attr title "ping round-trip time, mean"
attr unit s
scalar MeshLAN.host[0].pingApp[50] "Pings sent" 190
scalar MeshLAN.host[0].pingApp[50] "ping loss rate (%)" 33.684210526316
scalar MeshLAN.host[0].pingApp[50] "ping out-of-order rate (%)" 0
scalar MeshLAN.host[0].pingApp[50] pingRxSeq:count 99
attr interpolationmode none
attr title "ping rx seq, count"
scalar MeshLAN.host[0].pingApp[50] pingTxSeq:count 146
attr interpolationmode none
attr title "ping tx seq, count"
scalar MeshLAN.host[0].pingApp[50] numOutOfOrderArrivals:last nan
attr interpolationmode none
attr title "ping out-of-order arrivals, last"
scalar MeshLAN.host[0].pingApp[50] numLost:last 64
attr interpolationmode none
attr title "pings lost, last"
scalar MeshLAN.host[0].pingApp[50] rtt:mean 0.0078774012822143
attr interpolationmode none
attr title "ping round-trip time, mean"
attr unit s
scalar MeshLAN.host[0].pingApp[51] "Pings sent" 187
scalar MeshLAN.host[0].pingApp[51] "ping loss rate (%)" 65.24064171123
scalar MeshLAN.host[0].pingApp[51] "ping out-of-order rate (%)" 0
scalar MeshLAN.host[0].pingApp[51] pingRxSeq:count 48
attr interpolationmode none
attr title "ping rx seq, count"
scalar MeshLAN.host[0].pingApp[51] pingTxSeq:count 142
attr interpolationmode none
attr title "ping tx seq, count"
scalar MeshLAN.host[0].pingApp[51] numOutOfOrderArrivals:last nan
attr interpolationmode none
attr title "ping out-of-order arrivals, last"
scalar MeshLAN.host[0].pingApp[51] numLost:last 122
attr interpolationmode none
attr title "pings lost, last"
scalar MeshLAN.host[0].pingApp[51] rtt:mean 0.010226245239065
attr interpolationmode none
attr title "ping round-trip time, mean"
attr unit s
scalar MeshLAN.host[0].pingApp[52] "Pings sent" 202
scalar MeshLAN.host[0].pingApp[52] "ping loss rate (%)" 72.277227722772
scalar MeshLAN.host[0].pingApp[52] "ping out-of-order rate (%)" 0
scalar MeshLAN.host[0].pingApp[52] pingRxSeq:count 42
attr interpolationmode none
attr title "ping rx seq, count"
scalar MeshLAN.host[0].pingApp[52] pingTxSeq:count 156
attr interpolationmode none
attr title "ping tx seq, count"
scalar MeshLAN.host[0].pingApp[52] numOutOfOrderArrivals:last nan
attr interpolationmode none
attr title "ping out-of-order arrivals, last"
scalar MeshLAN.host[0].pingApp[52] numLost:last 144
attr interpolationmode none
attr title "pings lost, last"
scalar MeshLAN.host[0].pingApp[52] rtt:mean 0.0094126325252
attr interpolationmode none
attr title "ping round-trip time, mean"
attr unit s
scalar MeshLAN.host[0].pingApp[53] "Pings sent" 189
scalar MeshLAN.host[0].pingApp[53] "ping loss rate (%)" 66.666666666667
scalar MeshLAN.host[0].pingApp[53] "ping out-of-order rate (%)" 0
scalar MeshLAN.host[0].pingApp[53] pingRxSeq:count 52
attr interpolationmode none
attr title "ping rx seq, count"
scalar MeshLAN.host[0].pingApp[53] pingTxSeq:count 143
attr interpolationmode none
attr title "ping tx seq, count"
scalar MeshLAN.host[0].pingApp[53] numOutOfOrderArrivals:last nan
attr interpolationmode none
attr title "ping out-of-order arrivals, last"
scalar MeshLAN.host[0].pingApp[53] numLost:last 125
attr interpolationmode none
attr title "pings lost, last"
scalar MeshLAN.host[0].pingApp[53] rtt:mean 0.009419816116549
attr interpolationmode none
attr title "ping round-trip time, mean"
attr unit s
scalar MeshLAN.host[0].pingApp[54] "Pings sent" 186
scalar MeshLAN.host[0].pingApp[54] "ping loss rate (%)" 62.903225806452
scalar MeshLAN.host[0].pingApp[54] "ping out-of-order rate (%)" 0
scalar MeshLAN.host[0].pingApp[54] pingRxSeq:count 52
attr interpolationmode none
attr title "ping rx seq, count"
scalar MeshLAN.host[0].pingApp[54] pingTxSeq:count 143
attr interpolationmode none
attr title "ping tx seq, count"
scalar MeshLAN.host[0].pingApp[54] numOutOfOrderArrivals:last nan
attr interpolationmode none
attr title "ping out-of-order arrivals, last"
scalar MeshLAN.host[0].pingApp[54] numLost:last 117
attr interpolationmode none
attr title "pings lost, last"
scalar MeshLAN.host[0].pingApp[54] rtt:mean 0.0095819381189216
attr interpolationmode none
attr title "ping round-trip time, mean"
attr unit s
scalar MeshLAN.host[0].pingApp[55] "Pings sent" 182
scalar MeshLAN.host[0].pingApp[55] "ping loss rate (%)" 65.384615384615
scalar MeshLAN.host[0].pingApp[55] "ping out-of-order rate (%)" 0
scalar MeshLAN.host[0].pingApp[55] pingRxSeq:count 54
attr interpolationmode none
attr title "ping rx seq, count"
scalar MeshLAN.host[0].pingApp[55] pingTxSeq:count 144
attr interpolationmode none
attr title "ping tx seq, count"
scalar MeshLAN.host[0].pingApp[55] numOutOfOrderArrivals:last nan
attr interpolationmode none
attr title "ping out-of-order arrivals, last"
scalar MeshLAN.host[0].pingApp[55] numLost:last 119
attr interpolationmode none
attr title "pings lost, last"
scalar MeshLAN.host[0].pingApp[55] rtt:mean 0.010024797875849
attr interpolationmode none
attr title "ping round-trip time, mean"
attr unit s
scalar MeshLAN.host[0].pingApp[56] "Pings sent" 195
scalar MeshLAN.host[0].pingApp[56] "ping loss rate (%)" 66.153846153846
scalar MeshLAN.host[0].pingApp[56] "ping out-of-order rate (%)" 0
scalar MeshLAN.host[0].pingApp[56] pingRxSeq:count 54
attr interpolationmode none
attr title "ping rx seq, count"
scalar MeshLAN.host[0].pingApp[56] pingTxSeq:count 147
attr interpolationmode none
attr title "ping tx seq, count"
scalar MeshLAN.host[0].pingApp[56] numOutOfOrderArrivals:last nan
attr interpolationmode none
attr title "ping out-of-order arrivals, last"
scalar MeshLAN.host[0].pingApp[56] numLost:last 126
attr interpolationmode none
attr title "pings lost, last"
scalar MeshLAN.host[0].pingApp[56] rtt:mean 0.01049274023366
attr interpolationmode none
attr title "ping round-trip time, mean"
attr unit s
scalar MeshLAN.host[0].pingApp[57] "Pings sent" 197
scalar MeshLAN.host[0].pingApp[57] "ping loss rate (%)" 70.558375634518
scalar MeshLAN.host[0].pingApp[57] "ping out-of-order rate (%)" 0
scalar MeshLAN.host[0].pingApp[57] pingRxSeq:count 39
attr interpolationmode none
attr title "ping rx seq, count"
scalar MeshLAN.host[0].pingApp[57] pingTxSeq:count 150
attr interpolationmode none
attr title "ping tx seq, count"
scalar MeshLAN.host[0].pingApp[57] numOutOfOrderArrivals:last nan
attr interpolationmode none
attr title "ping out-of-order arrivals, last"
scalar MeshLAN.host[0].pingApp[57] numLost:last 138
attr interpolationmode none
attr title "pings lost, last"
scalar MeshLAN.host[0].pingApp[57] rtt:mean 0.010253112045947
attr interpolationmode none
attr title "ping round-trip time, mean"
attr unit s
scalar MeshLAN.host[0].pingApp[58] "Pings sent" 193
scalar MeshLAN.host[0].pingApp[58] "ping loss rate (%)" 28.497409326425
scalar MeshLAN.host[0].pingApp[58] "ping out-of-order rate (%)" 0
scalar MeshLAN.host[0].pingApp[58] pingRxSeq:count 107
attr interpolationmode none
attr title "ping rx seq, count"
scalar MeshLAN.host[0].pingApp[58] pingTxSeq:count 146
attr interpolationmode none
attr title "ping tx seq, count"
scalar MeshLAN.host[0].pingApp[58] numOutOfOrderArrivals:last nan
attr interpolationmode none
attr title "ping out-of-order arrivals, last"
scalar MeshLAN.host[0].pingApp[58] numLost:last 55
attr interpolationmode none
attr title "pings lost, last"
scalar MeshLAN.host[0].pingApp[58] rtt:mean 0.0079923359669524
attr interpolationmode none
attr title "ping round-trip time, mean"
attr unit s
scalar MeshLAN.host[0].pingApp[59] "Pings sent" 203
scalar MeshLAN.host[0].pingApp[59] "ping loss rate (%)" 31.034482758621
scalar MeshLAN.host[0].pingApp[59] "ping out-of-order rate (%)" 0
scalar MeshLAN.host[0].pingApp[59] pingRxSeq:count 108
attr interpolationmode none
attr title "ping rx seq, count"
scalar MeshLAN.host[0].pingApp[59] pingTxSeq:count 155
attr interpolationmode none
attr title "ping tx seq, count"
scalar MeshLAN.host[0].pingApp[59] numOutOfOrderArrivals:last nan
attr interpolationmode none
attr title "ping out-of-order arrivals, last"
scalar MeshLAN.host[0].pingApp[59] numLost:last 63
attr interpolationmode none
attr title "pings lost, last"
scalar MeshLAN.host[0].pingApp[59] rtt:mean 0.0084712749445701
attr interpolationmode none
attr title "ping round-trip time, mean"
attr unit s
scalar MeshLAN.host[0].pingApp[60] "Pings sent" 189
scalar MeshLAN.host[0].pingApp[60] "ping loss rate (%)" 66.666666666667
scalar MeshLAN.host[0].pingApp[60] "ping out-of-order rate (%)" 0
scalar MeshLAN.host[0].pingApp[60] pingRxSeq:count 45
attr interpolationmode none
attr title "ping rx seq, count"
scalar MeshLAN.host[0].pingApp[60] pingTxSeq:count 148
attr interpolationmode none
attr title "ping tx seq, count"
scalar MeshLAN.host[0].pingApp[60] numOutOfOrderArrivals:last nan
attr interpolationmode none
attr title "ping out-of-order arrivals, last"
scalar MeshLAN.host[0].pingApp[60] numLost:last 124
attr interpolationmode none
attr title "pings lost, last"
scalar MeshLAN.host[0].pingApp[60] rtt:mean 0.0096323799591111
attr interpolationmode none
attr title "ping round-trip time, mean"
attr unit s
scalar MeshLAN.host[0].pingApp[61] "Pings sent" 186
scalar MeshLAN.host[0].pingApp[61] "ping loss rate (%)" 74.731182795699
scalar MeshLAN.host[0].pingApp[61] "ping out-of-order rate (%)" 0
scalar MeshLAN.host[0].pingApp[61] pingRxSeq:count 36
attr interpolationmode none
attr title "ping rx seq, count"
scalar MeshLAN.host[0].pingApp[61] pingTxSeq:count 143
attr interpolationmode none
attr title "ping tx seq, count"
scalar MeshLAN.host[0].pingApp[61] numOutOfOrderArrivals:last nan
attr interpolationmode none
attr title "ping out-of-order arrivals, last"
scalar MeshLAN.host[0].pingApp[61] numLost:last 139
attr interpolationmode none
attr title "pings lost, last"
scalar MeshLAN.host[0].pingApp[61] rtt:mean 0.0096674587863611
attr interpolationmode none
attr title "ping round-trip time, mean"
attr unit s
scalar MeshLAN.host[0].pingApp[62] "Pings sent" 204
scalar MeshLAN.host[0].pingApp[62] "ping loss rate (%)" 68.627450980392
scalar MeshLAN.host[0].pingApp[62] "ping out-of-order rate (%)" 0
scalar MeshLAN.host[0].pingApp[62] pingRxSeq:count 47
attr interpolationmode none
attr title "ping rx seq, count"
scalar MeshLAN.host[0].pingApp[62] pingTxSeq:count 151
attr interpolationmode none
attr title "ping tx seq, count"
scalar MeshLAN.host[0].pingApp[62] numOutOfOrderArrivals:last nan
attr interpolationmode none
attr title "ping out-of-order arrivals, last"
scalar MeshLAN.host[0].pingApp[62] numLost:last 139
attr interpolationmode none
attr title "pings lost, last"
scalar MeshLAN.host[0].pingApp[62] rtt:mean 0.0090897090403913
attr interpolationmode none
attr title "ping round-trip time, mean"
attr unit s
scalar MeshLAN.host[0].pingApp[63] "Pings sent" 190
scalar MeshLAN.host[0].pingApp[63] "ping loss rate (%)" 64.210526315789
scalar MeshLAN.host[0].pingApp[63] "ping out-of-order rate (%)" 0
scalar MeshLAN.host[0].pingApp[63] pingRxSeq:count 52
attr interpolationmode none
attr title "ping rx seq, count"
scalar MeshLAN.host[0].pingApp[63] pingTxSeq:count 143
attr interpolationmode none
attr title "ping tx seq, count"
scalar MeshLAN.host[0].pingApp[63] numOutOfOrderArrivals:last nan
attr interpolationmode none
attr title "ping out-of-order arrivals, last"
scalar MeshLAN.host[0].pingApp[63] numLost:last 121
attr interpolationmode none
attr title "pings lost, last"
scalar MeshLAN.host[0].pingApp[63] rtt:mean 0.0093845000699
attr interpolationmode none
attr title "ping round-trip time, mean"
attr unit s
scalar MeshLAN.host[0].pingApp[64] "Pings sent" 184
scalar MeshLAN.host[0].pingApp[64] "ping loss rate (%)" 66.304347826087
scalar MeshLAN.host[0].pingApp[64] "ping out-of-order rate (%)" 0
scalar MeshLAN.host[0].pingApp[64] pingRxSeq:count 46
attr interpolationmode none
attr title "ping rx seq, count"
scalar MeshLAN.host[0].pingApp[64] pingTxSeq:count 138
attr interpolationmode none
attr title "ping tx seq, count"
scalar MeshLAN.host[0].pingApp[64] numOutOfOrderArrivals:last nan
attr interpolationmode none
attr title "ping out-of-order arrivals, last"
scalar MeshLAN.host[0].pingApp[64] numLost:last 113
attr interpolationmode none
attr title "pings lost, last"
scalar MeshLAN.host[0].pingApp[64] rtt:mean 0.0091930679966818
attr interpolationmode none
attr title "ping round-trip time, mean"
attr unit s
scalar MeshLAN.host[0].pingApp[65] "Pings sent" 206
scalar MeshLAN.host[0].pingApp[65] "ping loss rate (%)" 35.922330097087
scalar MeshLAN.host[0].pingApp[65] "ping out-of-order rate (%)" 0
scalar MeshLAN.host[0].pingApp[65] pingRxSeq:count 96
attr interpolationmode none
attr title "ping rx seq, count"
scalar MeshLAN.host[0].pingApp[65] pingTxSeq:count 156
attr interpolationmode none
attr title "ping tx seq, count"
scalar MeshLAN.host[0].pingApp[65] numOutOfOrderArrivals:last nan
attr interpolationmode none
attr title "ping out-of-order arrivals, last"
scalar MeshLAN.host[0].pingApp[65] numLost:last 74
attr interpolationmode none
attr title "pings lost, last"
scalar MeshLAN.host[0].pingApp[65] rtt:mean 0.0089278007363438
attr interpolationmode none
attr title "ping round-trip time, mean"
attr unit s
scalar MeshLAN.host[0].pingApp[66] "Pings sent" 186
scalar MeshLAN.host[0].pingApp[66] "ping loss rate (%)" 67.204301075269
scalar MeshLAN.host[0].pingApp[66] "ping out-of-order rate (%)" 0
scalar MeshLAN.host[0].pingApp[66] pingRxSeq:count 45
attr interpolationmode none
attr title "ping rx seq, count"
scalar MeshLAN.host[0].pingApp[66] pingTxSeq:count 141
attr interpolationmode none
attr title "ping tx seq, count"
scalar MeshLAN.host[0].pingApp[66] numOutOfOrderArrivals:last nan
attr interpolationmode none
attr title "ping out-of-order arrivals, last"
scalar MeshLAN.host[0].pingApp[66] numLost:last 124
attr interpolationmode none
attr title "pings lost, last"
scalar MeshLAN.host[0].pingApp[66] rtt:mean 0.010610162132659
attr interpolationmode none
attr title "ping round-trip time, mean"
attr unit s
scalar MeshLAN.host[0].pingApp[67] "Pings sent" 188
scalar MeshLAN.host[0].pingApp[67] "ping loss rate (%)" 32.978723404255
scalar MeshLAN.host[0].pingApp[67] "ping out-of-order rate (%)" 0
scalar MeshLAN.host[0].pingApp[67] pingRxSeq:count 96
attr interpolationmode none
attr title "ping rx seq, count"
scalar MeshLAN.host[0].pingApp[67] pingTxSeq:count 145
attr interpolationmode none
attr title "ping tx seq, count"
scalar MeshLAN.host[0].pingApp[67] numOutOfOrderArrivals:last nan
attr interpolationmode none
attr title "ping out-of-order arrivals, last"
scalar MeshLAN.host[0].pingApp[67] numLost:last 61
attr interpolationmode none
attr title "pings lost, last"
scalar MeshLAN.host[0].pingApp[67] rtt:mean 0.009153778624617
attr interpolationmode none
attr title "ping round-trip time, mean"
attr unit s
scalar MeshLAN.host[0].pingApp[68] "Pings sent" 199
scalar MeshLAN.host[0].pingApp[68] "ping loss rate (%)" 35.678391959799
scalar MeshLAN.host[0].pingApp[68] "ping out-of-order rate (%)" 0
scalar MeshLAN.host[0].pingApp[68] pingRxSeq:count 104
attr interpolationmode none
attr title "ping rx seq, count"
scalar MeshLAN.host[0].pingApp[68] pingTxSeq:count 156
attr interpolationmode none
attr title "ping tx seq, count"
scalar MeshLAN.host[0].pingApp[68] numOutOfOrderArrivals:last nan
attr interpolationmode none
attr title "ping out-of-order arrivals, last"
scalar MeshLAN.host[0].pingApp[68] numLost:last 71
attr interpolationmode none
attr title "pings lost, last"
scalar MeshLAN.host[0].pingApp[68] rtt:mean 0.0097001468409135
attr interpolationmode none
attr title "ping round-trip time, mean"
attr unit s
scalar MeshLAN.host[0].pingApp[69] "Pings sent" 192
scalar MeshLAN.host[0].pingApp[69] "ping loss rate (%)" 65.104166666667
scalar MeshLAN.host[0].pingApp[69] "ping out-of-order rate (%)" 0
scalar MeshLAN.host[0].pingApp[69] pingRxSeq:count 50
attr interpolationmode none
attr title "ping rx seq, count"
scalar MeshLAN.host[0].pingApp[69] pingTxSeq:count 149
attr interpolationmode none
attr title "ping tx seq, count"
scalar MeshLAN.host[0].pingApp[69] numOutOfOrderArrivals:last nan
attr interpolationmode none
attr title "ping out-of-order arrivals, last"
scalar MeshLAN.host[0].pingApp[69] numLost:last 123
attr interpolationmode none
attr title "pings lost, last"
scalar MeshLAN.host[0].pingApp[69] rtt:mean 0.0096470685379792
attr interpolationmode none
attr title "ping round-trip time, mean"
attr unit s
scalar MeshLAN.host[0].pingApp[70] "Pings sent" 197
scalar MeshLAN.host[0].pingApp[70] "ping loss rate (%)" 63.959390862944
scalar MeshLAN.host[0].pingApp[70] "ping out-of-order rate (%)" 0
scalar MeshLAN.host[0].pingApp[70] pingRxSeq:count 57
attr interpolationmode none
attr title "ping rx seq, count"
scalar MeshLAN.host[0].pingApp[70] pingTxSeq:count 147
attr interpolationmode none
attr title "ping tx seq, count"
scalar MeshLAN.host[0].pingApp[70] numOutOfOrderArrivals:last nan
attr interpolationmode none
attr title "ping out-of-order arrivals, last"
scalar MeshLAN.host[0].pingApp[70] numLost:last 125
attr interpolationmode none
attr title "pings lost, last"
scalar MeshLAN.host[0].pingApp[70] rtt:mean 0.0097716308638929
attr interpolationmode none
attr title "ping round-trip time, mean"
attr unit s
scalar MeshLAN.host[0].pingApp[71] "Pings sent" 203
scalar MeshLAN.host[0].pingApp[71] "ping loss rate (%)" 64.532019704433
scalar MeshLAN.host[0].pingApp[71] "ping out-of-order rate (%)" 0
scalar MeshLAN.host[0].pingApp[71] pingRxSeq:count 59
attr interpolationmode none
attr title "ping rx seq, count"
scalar MeshLAN.host[0].pingApp[71] pingTxSeq:count 155
attr interpolationmode none
attr title "ping tx seq, count"
scalar MeshLAN.host[0].pingApp[71] numOutOfOrderArrivals:last nan
attr interpolationmode none
attr title "ping out-of-order arrivals, last"
scalar MeshLAN.host[0].pingApp[71] numLost:last 127
attr interpolationmode none
attr title "pings lost, last"
scalar MeshLAN.host[0].pingApp[71] rtt:mean 0.01042800239869
attr interpolationmode none
attr title "ping round-trip time, mean"
attr unit s
scalar MeshLAN.host[0].pingApp[72] "Pings sent" 202
scalar MeshLAN.host[0].pingApp[72] "ping loss rate (%)" 36.633663366337
scalar MeshLAN.host[0].pingApp[72] "ping out-of-order rate (%)" 0
scalar MeshLAN.host[0].pingApp[72] pingRxSeq:count 97
attr interpolationmode none
attr title "ping rx seq, count"
scalar MeshLAN.host[0].pingApp[72] pingTxSeq:count 150
attr interpolationmode none
attr title "ping tx seq, count"
scalar MeshLAN.host[0].pingApp[72] numOutOfOrderArrivals:last nan
attr interpolationmode none
attr title "ping out-of-order arrivals, last"
scalar MeshLAN.host[0].pingApp[72] numLost:last 74
attr interpolationmode none
attr title "pings lost, last"
scalar MeshLAN.host[0].pingApp[72] rtt:mean 0.0093195302044845
attr interpolationmode none
attr title "ping round-trip time, mean"
attr unit s
scalar MeshLAN.host[0].pingApp[73] "Pings sent" 197
scalar MeshLAN.host[0].pingApp[73] "ping loss rate (%)" 36.040609137056
scalar MeshLAN.host[0].pingApp[73] "ping out-of-order rate (%)" 0
scalar MeshLAN.host[0].pingApp[73] pingRxSeq:count 93
attr interpolationmode none
attr title "ping rx seq, count"
scalar MeshLAN.host[0].pingApp[73] pingTxSeq:count 153
attr interpolationmode none
attr title "ping tx seq, count"
scalar MeshLAN.host[0].pingApp[73] numOutOfOrderArrivals:last nan
attr interpolationmode none
attr title "ping out-of-order arrivals, last"
scalar MeshLAN.host[0].pingApp[73] numLost:last 71
attr interpolationmode none
attr title "pings lost, last"
scalar MeshLAN.host[0].pingApp[73] rtt:mean 0.0089544145565435
attr interpolationmode none
attr title "ping round-trip time, mean"
attr unit s
scalar MeshLAN.host[0].pingApp[74] "Pings sent" 196
scalar MeshLAN.host[0].pingApp[74] "ping loss rate (%)" 66.836734693878
scalar MeshLAN.host[0].pingApp[74] "ping out-of-order rate (%)" 0
scalar MeshLAN.host[0].pingApp[74] pingRxSeq:count 53
attr interpolationmode none
attr title "ping rx seq, count"
scalar MeshLAN.host[0].pingApp[74] pingTxSeq:count 152
attr interpolationmode none
attr title "ping tx seq, count"
scalar MeshLAN.host[0].pingApp[74] numOutOfOrderArrivals:last nan
attr interpolationmode none
attr title "ping out-of-order arrivals, last"
scalar MeshLAN.host[0].pingApp[74] numLost:last 131
attr interpolationmode none
attr title "pings lost, last"
scalar MeshLAN.host[0].pingApp[74] rtt:mean 0.0092930425971538
attr interpolationmode none
attr title "ping round-trip time, mean"
attr unit s
scalar MeshLAN.host[0].pingApp[75] "Pings sent" 196
scalar MeshLAN.host[0].pingApp[75] "ping loss rate (%)" 28.571428571429
scalar MeshLAN.host[0].pingApp[75] "ping out-of-order rate (%)" 0
scalar MeshLAN.host[0].pingApp[75] pingRxSeq:count 109
attr interpolationmode none
attr title "ping rx seq, count"
scalar MeshLAN.host[0].pingApp[75] pingTxSeq:count 149
attr interpolationmode none
attr title "ping tx seq, count"
scalar MeshLAN.host[0].pingApp[75] numOutOfOrderArrivals:last nan
attr interpolationmode none
attr title "ping out-of-order arrivals, last"
scalar MeshLAN.host[0].pingApp[75] numLost:last 56
attr interpolationmode none
attr title "pings lost, last"
scalar MeshLAN.host[0].pingApp[75] rtt:mean 0.0090934545863395
attr interpolationmode none
attr title "ping round-trip time, mean"
attr unit s
scalar MeshLAN.host[0].pingApp[76] "Pings sent" 189
scalar MeshLAN.host[0].pingApp[76] "ping loss rate (%)" 65.079365079365
scalar MeshLAN.host[0].pingApp[76] "ping out-of-order rate (%)" 0
scalar MeshLAN.host[0].pingApp[76] pingRxSeq:count 55
attr interpolationmode none
attr title "ping rx seq, count"
scalar MeshLAN.host[0].pingApp[76] pingTxSeq:count 143
attr interpolationmode none
attr title "ping tx seq, count"
scalar MeshLAN.host[0].pingApp[76] numOutOfOrderArrivals:last nan
attr interpolationmode none
attr title "ping out-of-order arrivals, last"
scalar MeshLAN.host[0].pingApp[76] numLost:last 123
attr interpolationmode none
attr title "pings lost, last"
scalar MeshLAN.host[0].pingApp[76] rtt:mean 0.009342843313
attr interpolationmode none
attr title "ping round-trip time, mean"
attr unit s
scalar MeshLAN.host[0].pingApp[77] "Pings sent" 199
scalar MeshLAN.host[0].pingApp[77] "ping loss rate (%)" 33.668341708543
scalar MeshLAN.host[0].pingApp[77] "ping out-of-order rate (%)" 0
scalar MeshLAN.host[0].pingApp[77] pingRxSeq:count 103
attr interpolationmode none
attr title "ping rx seq, count"
scalar MeshLAN.host[0].pingApp[77] pingTxSeq:count 154
attr interpolationmode none
attr title "ping tx seq, count"
scalar MeshLAN.host[0].pingApp[77] numOutOfOrderArrivals:last nan
attr interpolationmode none
attr title "ping out-of-order arrivals, last"
scalar MeshLAN.host[0].pingApp[77] numLost:last 67
attr interpolationmode none
attr title "pings lost, last"
scalar MeshLAN.host[0].pingApp[77] rtt:mean 0.0095767858390588
attr interpolationmode none
attr title "ping round-trip time, mean"
attr unit s
scalar MeshLAN.host[0].pingApp[78] "Pings sent" 183
scalar MeshLAN.host[0].pingApp[78] "ping loss rate (%)" 32.24043715847
scalar MeshLAN.host[0].pingApp[78] "ping out-of-order rate (%)" 0
scalar MeshLAN.host[0].pingApp[78] pingRxSeq:count 95
attr interpolationmode none
attr title "ping rx seq, count"
scalar MeshLAN.host[0].pingApp[78] pingTxSeq:count 139
attr interpolationmode none
attr title "ping tx seq, count"
scalar MeshLAN.host[0].pingApp[78] numOutOfOrderArrivals:last nan
attr interpolationmode none
attr title "ping out-of-order arrivals, last"
scalar MeshLAN.host[0].pingApp[78] numLost:last 59
attr interpolationmode none
attr title "pings lost, last"
scalar MeshLAN.host[0].pingApp[78] rtt:mean 0.0082114802528105
attr interpolationmode none
attr title "ping round-trip time, mean"
attr unit s
scalar MeshLAN.host[0].pingApp[79] "Pings sent" 189
scalar MeshLAN.host[0].pingApp[79] "ping loss rate (%)" 31.746031746032
scalar MeshLAN.host[0].pingApp[79] "ping out-of-order rate (%)" 0
scalar MeshLAN.host[0].pingApp[79] pingRxSeq:count 98
attr interpolationmode none
attr title "ping rx seq, count"
scalar MeshLAN.host[0].pingApp[79] pingTxSeq:count 144
attr interpolationmode none
attr title "ping tx seq, count"
scalar MeshLAN.host[0].pingApp[79] numOutOfOrderArrivals:last nan
attr interpolationmode none
attr title "ping out-of-order arrivals, last"
scalar MeshLAN.host[0].pingApp[79] numLost:last 59
attr interpolationmode none
attr title "pings lost, last"
scalar MeshLAN.host[0].pingApp[79] rtt:mean 0.0094880834717474
attr interpolationmode none
attr title "ping round-trip time, mean"
attr unit s
scalar MeshLAN.host[0].pingApp[80] "Pings sent" 192
scalar MeshLAN.host[0].pingApp[80] "ping loss rate (%)" 34.375
scalar MeshLAN.host[0].pingApp[80] "ping out-of-order rate (%)" 0
scalar MeshLAN.host[0].pingApp[80] pingRxSeq:count 96
attr interpolationmode none
attr title "ping rx seq, count"
scalar MeshLAN.host[0].pingApp[80] pingTxSeq:count 146
attr interpolationmode none
attr title "ping tx seq, count"
scalar MeshLAN.host[0].pingApp[80] numOutOfOrderArrivals:last nan
attr interpolationmode none
attr title "ping out-of-order arrivals, last"
scalar MeshLAN.host[0].pingApp[80] numLost:last 63
attr interpolationmode none
attr title "pings lost, last"
scalar MeshLAN.host[0].pingApp[80] rtt:mean 0.0078721544689053
attr interpolationmode none
attr title "ping round-trip time, mean"
attr unit s
scalar MeshLAN.host[0].pingApp[81] "Pings sent" 188
scalar MeshLAN.host[0].pingApp[81] "ping loss rate (%)" 69.68085106383
scalar MeshLAN.host[0].pingApp[81] "ping out-of-order rate (%)" 0
scalar MeshLAN.host[0].pingApp[81] pingRxSeq:count 42
attr interpolationmode none
attr title "ping rx seq, count"
scalar MeshLAN.host[0].pingApp[81] pingTxSeq:count 142
attr interpolationmode none
attr title "ping tx seq, count"
scalar MeshLAN.host[0].pingApp[81] numOutOfOrderArrivals:last nan
attr interpolationmode none
attr title "ping out-of-order arrivals, last"
scalar MeshLAN.host[0].pingApp[81] numLost:last 122
attr interpolationmode none
attr title "pings lost, last"
scalar MeshLAN.host[0].pingApp[81] rtt:mean 0.0098825400026579
attr interpolationmode none
attr title "ping round-trip time, mean"
attr unit s
scalar MeshLAN.host[0].pingApp[82] "Pings sent" 184
scalar MeshLAN.host[0].pingApp[82] "ping loss rate (%)" 65.760869565217
scalar MeshLAN.host[0].pingApp[82] "ping out-of-order rate (%)" 0
scalar MeshLAN.host[0].pingApp[82] pingRxSeq:count 46
attr interpolationmode none
attr title "ping rx seq, count"
scalar MeshLAN.host[0].pingApp[82] pingTxSeq:count 142
attr interpolationmode none
attr title "ping tx seq, count"
scalar MeshLAN.host[0].pingApp[82] numOutOfOrderArrivals:last nan
attr interpolationmode none
attr title "ping out-of-order arrivals, last"
scalar MeshLAN.host[0].pingApp[82] numLost:last 120
attr interpolationmode none
attr title "pings lost, last"
scalar MeshLAN.host[0].pingApp[82] rtt:mean 0.0094964254746364
attr interpolationmode none
attr title "ping round-trip time, mean"
attr unit s
scalar MeshLAN.host[0].pingApp[83] "Pings sent" 200
scalar MeshLAN.host[0].pingApp[83] "ping loss rate (%)" 70
scalar MeshLAN.host[0].pingApp[83] "ping out-of-order rate (%)" 0.5
scalar MeshLAN.host[0].pingApp[83] pingRxSeq:count 49
attr interpolationmode none
attr title "ping rx seq, count"
scalar MeshLAN.host[0].pingApp[83] pingTxSeq:count 152
attr interpolationmode none
attr title "ping tx seq, count"
scalar MeshLAN.host[0].pingApp[83] numOutOfOrderArrivals:last 1
attr interpolationmode none
attr title "ping out-of-order arrivals, last"
scalar MeshLAN.host[0].pingApp[83] numLost:last 139
attr interpolationmode none
attr title "pings lost, last"
scalar MeshLAN.host[0].pingApp[83] rtt:mean 0.0091259413632041
attr interpolationmode none
attr title "ping round-trip time, mean"
attr unit s
scalar MeshLAN.host[0].pingApp[84] "Pings sent" 182
scalar MeshLAN.host[0].pingApp[84] "ping loss rate (%)" 33.516483516484
scalar MeshLAN.host[0].pingApp[84] "ping out-of-order rate (%)" 0
scalar MeshLAN.host[0].pingApp[84] pingRxSeq:count 95
attr interpolationmode none
attr title "ping rx seq, count"
scalar MeshLAN.host[0].pingApp[84] pingTxSeq:count 141
attr interpolationmode none
attr title "ping tx seq, count"
scalar MeshLAN.host[0].pingApp[84] numOutOfOrderArrivals:last nan
attr interpolationmode none
attr title "ping out-of-order arrivals, last"
scalar MeshLAN.host[0].pingApp[84] numLost:last 58
attr interpolationmode none
attr title "pings lost, last"
scalar MeshLAN.host[0].pingApp[84] rtt:mean 0.0089574941746452
attr interpolationmode none
attr title "ping round-trip time, mean"
attr unit s
scalar MeshLAN.host[0].pingApp[85] "Pings sent" 188
scalar MeshLAN.host[0].pingApp[85] "ping loss rate (%)" 68.085106382979
scalar MeshLAN.host[0].pingApp[85] "ping out-of-order rate (%)" 0
scalar MeshLAN.host[0].pingApp[85] pingRxSeq:count 49
attr interpolationmode none
attr title "ping rx seq, count"
scalar MeshLAN.host[0].pingApp[85] pingTxSeq:count 142
attr interpolationmode none
attr title "ping tx seq, count"
scalar MeshLAN.host[0].pingApp[85] numOutOfOrderArrivals:last nan
attr interpolationmode none
attr title "ping out-of-order arrivals, last"
scalar MeshLAN.host[0].pingApp[85] numLost:last 126
attr interpolationmode none
attr title "pings lost, last"
scalar MeshLAN.host[0].pingApp[85] rtt:mean 0.0087966587218125
attr interpolationmode none
attr title "ping round-trip time, mean"
attr unit s
scalar MeshLAN.host[0].pingApp[86] "Pings sent" 198
[...]
scalar MeshLAN.router[9].eth[7].mac "simulated time" 20
scalar MeshLAN.router[9].eth[7].mac full-duplex 1
scalar MeshLAN.router[9].eth[7].mac "frames/sec sent" 255.75
scalar MeshLAN.router[9].eth[7].mac "frames/sec rcvd" 253.85
scalar MeshLAN.router[9].eth[7].mac "bits/sec sent" 1582237.2
scalar MeshLAN.router[9].eth[7].mac "bits/sec rcvd" 1566090.8
scalar MeshLAN.router[9].eth[7].mac "rx channel idle (%)" 84.176628
scalar MeshLAN.router[9].eth[7].mac "rx channel utilization (%)" 15.823372
scalar MeshLAN.router[9].eth[7].mac rxPkFromHL:count 3923
attr interpolationmode none
attr source rxPkFromHL
attr title "packet bytes from higher layer, count"
scalar MeshLAN.router[9].eth[7].mac rxPkFromHL:sum(packetBytes) 3038437
attr interpolationmode none
attr source rxPkFromHL
attr title "packet bytes from higher layer, sum(packetBytes)"
scalar MeshLAN.router[9].eth[7].mac rxPausePkUnits:count 0
attr interpolationmode none
attr title "pause units received, count"
scalar MeshLAN.router[9].eth[7].mac rxPausePkUnits:sum 0
attr interpolationmode none
attr title "pause units received, sum"
scalar MeshLAN.router[9].eth[7].mac txPausePkUnits:count 0
attr interpolationmode none
attr title "pause units sent, count"
scalar MeshLAN.router[9].eth[7].mac txPausePkUnits:sum 0
attr interpolationmode none
attr title "pause units sent, sum"
scalar MeshLAN.router[9].eth[7].mac txPk:count 3923
attr interpolationmode none
attr source txPk
attr title "packets transmitted, count"
scalar MeshLAN.router[9].eth[7].mac txPk:sum(packetBytes) 3038437
attr interpolationmode none
attr source txPk
attr title "packets transmitted, sum(packetBytes)"
scalar MeshLAN.router[9].eth[7].mac droppedPkNotForUs:count 0
attr interpolationmode none
attr source dropPkNotForUs
attr title "packets dropped/not for us, count"
scalar MeshLAN.router[9].eth[7].mac droppedPkNotForUs:sum(packetBytes) 0
attr interpolationmode none
attr source dropPkNotForUs
attr title "packets dropped/not for us, sum(packetBytes)"
scalar MeshLAN.router[9].eth[7].mac droppedPkBitError:count 0
attr interpolationmode none
attr source dropPkBitError
attr title "packets dropped/bit error, count"
scalar MeshLAN.router[9].eth[7].mac droppedPkBitError:sum(packetBytes) 0
attr interpolationmode none
attr source dropPkBitError
attr title "packets dropped/bit error, sum(packetBytes)"
scalar MeshLAN.router[9].eth[7].mac droppedPkIfaceDown:count 0
attr interpolationmode none
attr source dropPkIfaceDown
attr title "packets dropped/interface down, count"
scalar MeshLAN.router[9].eth[7].mac droppedPkIfaceDown:sum(packetBytes) 0
attr interpolationmode none
attr source dropPkIfaceDown
attr title "packets dropped/interface down, sum(packetBytes)"
scalar MeshLAN.router[9].eth[7].mac rxPkOk:count 3886
attr interpolationmode none
attr source rxPkOk
attr title "packets received OK, count"
scalar MeshLAN.router[9].eth[7].mac rxPkOk:sum(packetBytes) 3002050
attr interpolationmode none
attr source rxPkOk
attr title "packets received OK, sum(packetBytes)"
scalar MeshLAN.router[9].eth[7].mac passedUpPk:count 3886
attr interpolationmode none
attr source packetSentToUpper
attr title "packets passed to higher layer, count"
scalar MeshLAN.router[9].eth[7].mac passedUpPk:sum(packetBytes) 3002050
attr interpolationmode none
attr source packetSentToUpper
attr title "packets passed to higher layer, sum(packetBytes)"
scalar MeshLAN.router[9].eth[7].encap pauseSent:count 0
attr title "pause sent, count"
scalar MeshLAN.router[9].eth[7].encap pauseSent:sum 0
attr title "pause sent, sum"
scalar MeshLAN.router[9].eth[7].encap decapPk:count 3886
attr interpolationmode none
attr source decapPk
attr title "packets decapsulated, count"
scalar MeshLAN.router[9].eth[7].encap decapPk:sum(packetBytes) 2931727
attr interpolationmode none
attr source decapPk
attr title "packets decapsulated, sum(packetBytes)"
scalar MeshLAN.router[9].eth[7].encap encapPk:count 3923
attr interpolationmode none
attr source encapPk
attr title "packets encapsulated, count"
scalar MeshLAN.router[9].eth[7].encap encapPk:sum(packetBytes) 2967448
attr interpolationmode none
attr source encapPk
attr title "packets encapsulated, sum(packetBytes)"
scalar MeshLAN.router[9].eth[8].queue.pauseQueue queueLength:max nan
attr interpolationmode sample-hold
attr title "queue length, max"
scalar MeshLAN.router[9].eth[8].queue.pauseQueue queueLength:timeavg nan
attr interpolationmode sample-hold
attr title "queue length, timeavg"
statistic MeshLAN.router[9].eth[8].queue.pauseQueue queueingTime:histogram
field count 0
field mean nan
field stddev nan
field min nan
field max nan
field sum 0
field sqrsum 0
attr interpolationmode none
attr title "queueing time, histogram"
bin	-inf	0
bin	-0.5	0
bin	-0.46666666666667	0
bin	-0.43333333333333	0
bin	-0.4	0
bin	-0.36666666666667	0
bin	-0.33333333333333	0
bin	-0.3	0
bin	-0.26666666666667	0
bin	-0.23333333333333	0
bin	-0.2	0
bin	-0.16666666666667	0
bin	-0.13333333333333	0
bin	-0.1	0
bin	-0.066666666666667	0
bin	-0.033333333333333	0
bin	0	0
bin	0.033333333333333	0
bin	0.066666666666667	0
bin	0.1	0
bin	0.13333333333333	0
bin	0.16666666666667	0
bin	0.2	0
bin	0.23333333333333	0
bin	0.26666666666667	0
bin	0.3	0
bin	0.33333333333333	0
bin	0.36666666666667	0
bin	0.4	0
bin	0.43333333333333	0
bin	0.46666666666667	0
bin	0.5	0
scalar MeshLAN.router[9].eth[8].queue.pauseQueue dropPk:count 0
attr interpolationmode none
attr source dropPkByQueue
attr title "dropped packets, count"
scalar MeshLAN.router[9].eth[8].queue.pauseQueue dropPk:sum(packetBytes) 0
attr interpolationmode none
attr source dropPkByQueue
attr title "dropped packets, sum(packetBytes)"
scalar MeshLAN.router[9].eth[8].queue.pauseQueue rcvdPk:count 0
attr interpolationmode none
attr title "received packets, count"
scalar MeshLAN.router[9].eth[8].queue.pauseQueue rcvdPk:sum(packetBytes) 0
attr interpolationmode none
attr title "received packets, sum(packetBytes)"
scalar MeshLAN.router[9].eth[8].queue.dataQueue queueLength:max 3
attr interpolationmode sample-hold
attr title "queue length, max"
scalar MeshLAN.router[9].eth[8].queue.dataQueue queueLength:timeavg 0.052630731750593
attr interpolationmode sample-hold
attr title "queue length, timeavg"
statistic MeshLAN.router[9].eth[8].queue.dataQueue queueingTime:histogram
field count 3948
field mean 0.00019996306521606
field stddev 0.00034929017516904
field min 0
field max 0.002161377829
field sum 0.78945418147301
field sqrsum 0.00063940999165057
attr interpolationmode none
attr title "queueing time, histogram"
bin	-inf	0
bin	-0.000711539855	0
bin	-0.00061666787433333	0
bin	-0.00052179589366667	0
bin	-0.000426923913	0
bin	-0.00033205193233333	0
bin	-0.00023717995166667	0
bin	-0.000142307971	0
bin	-4.7435990333333e-005	2729
bin	4.7435990333333e-005	75
bin	0.000142307971	65
bin	0.00023717995166667	92
bin	0.00033205193233333	99
bin	0.000426923913	128
bin	0.00052179589366667	100
bin	0.00061666787433333	80
bin	0.000711539855	103
bin	0.00080641183566667	365
bin	0.00090128381633333	18
bin	0.000996155797	17
bin	0.0010910277776667	11
bin	0.0011858997583333	10
bin	0.001280771739	14
bin	0.0013756437196667	9
bin	0.0014705157003333	15
bin	0.001565387681	7
bin	0.0016602596616667	8
bin	0.0017551316423333	1
bin	0.001850003623	0
bin	0.0019448756036667	1
bin	0.0020397475843333	0
bin	0.002134619565	1
scalar MeshLAN.router[9].eth[8].queue.dataQueue dropPk:count 0
attr interpolationmode none
attr source dropPkByQueue
attr title "dropped packets, count"
scalar MeshLAN.router[9].eth[8].queue.dataQueue dropPk:sum(packetBytes) 0
attr interpolationmode none
attr source dropPkByQueue
attr title "dropped packets, sum(packetBytes)"
scalar MeshLAN.router[9].eth[8].queue.dataQueue rcvdPk:count 3948
attr interpolationmode none
attr title "received packets, count"
scalar MeshLAN.router[9].eth[8].queue.dataQueue rcvdPk:sum(packetBytes) 3070604
attr interpolationmode none
attr title "received packets, sum(packetBytes)"
scalar MeshLAN.router[9].eth[8].mac "simulated time" 20
scalar MeshLAN.router[9].eth[8].mac full-duplex 1
scalar MeshLAN.router[9].eth[8].mac "frames/sec sent" 258.55
scalar MeshLAN.router[9].eth[8].mac "frames/sec rcvd" 252.7
scalar MeshLAN.router[9].eth[8].mac "bits/sec sent" 1604097.2
scalar MeshLAN.router[9].eth[8].mac "bits/sec rcvd" 1559139.6
scalar MeshLAN.router[9].eth[8].mac "rx channel idle (%)" 84.246876
scalar MeshLAN.router[9].eth[8].mac "rx channel utilization (%)" 15.753124
scalar MeshLAN.router[9].eth[8].mac rxPkFromHL:count 3948
attr interpolationmode none
attr source rxPkFromHL
attr title "packet bytes from higher layer, count"
scalar MeshLAN.router[9].eth[8].mac rxPkFromHL:sum(packetBytes) 3070604
attr interpolationmode none
attr source rxPkFromHL
attr title "packet bytes from higher layer, sum(packetBytes)"
scalar MeshLAN.router[9].eth[8].mac rxPausePkUnits:count 0
attr interpolationmode none
attr title "pause units received, count"
scalar MeshLAN.router[9].eth[8].mac rxPausePkUnits:sum 0
attr interpolationmode none
attr title "pause units received, sum"
scalar MeshLAN.router[9].eth[8].mac txPausePkUnits:count 0
attr interpolationmode none
attr title "pause units sent, count"
scalar MeshLAN.router[9].eth[8].mac txPausePkUnits:sum 0
attr interpolationmode none
attr title "pause units sent, sum"
scalar MeshLAN.router[9].eth[8].mac txPk:count 3948
attr interpolationmode none
attr source txPk
attr title "packets transmitted, count"
scalar MeshLAN.router[9].eth[8].mac txPk:sum(packetBytes) 3070604
attr interpolationmode none
attr source txPk
attr title "packets transmitted, sum(packetBytes)"
scalar MeshLAN.router[9].eth[8].mac droppedPkNotForUs:count 0
attr interpolationmode none
attr source dropPkNotForUs
attr title "packets dropped/not for us, count"
scalar MeshLAN.router[9].eth[8].mac droppedPkNotForUs:sum(packetBytes) 0
attr interpolationmode none
attr source dropPkNotForUs
attr title "packets dropped/not for us, sum(packetBytes)"
scalar MeshLAN.router[9].eth[8].mac droppedPkBitError:count 0
attr interpolationmode none
attr source dropPkBitError
attr title "packets dropped/bit error, count"
scalar MeshLAN.router[9].eth[8].mac droppedPkBitError:sum(packetBytes) 0
attr interpolationmode none
attr source dropPkBitError
attr title "packets dropped/bit error, sum(packetBytes)"
scalar MeshLAN.router[9].eth[8].mac droppedPkIfaceDown:count 0
attr interpolationmode none
attr source dropPkIfaceDown
attr title "packets dropped/interface down, count"
scalar MeshLAN.router[9].eth[8].mac droppedPkIfaceDown:sum(packetBytes) 0
attr interpolationmode none
attr source dropPkIfaceDown
attr title "packets dropped/interface down, sum(packetBytes)"
scalar MeshLAN.router[9].eth[8].mac rxPkOk:count 3866
attr interpolationmode none
attr source rxPkOk
attr title "packets received OK, count"
scalar MeshLAN.router[9].eth[8].mac rxPkOk:sum(packetBytes) 2993598
attr interpolationmode none
attr source rxPkOk
attr title "packets received OK, sum(packetBytes)"
scalar MeshLAN.router[9].eth[8].mac passedUpPk:count 3866
attr interpolationmode none
attr source packetSentToUpper
attr title "packets passed to higher layer, count"
scalar MeshLAN.router[9].eth[8].mac passedUpPk:sum(packetBytes) 2993598
attr interpolationmode none
attr source packetSentToUpper
attr title "packets passed to higher layer, sum(packetBytes)"
scalar MeshLAN.router[9].eth[8].encap pauseSent:count 0
attr title "pause sent, count"
scalar MeshLAN.router[9].eth[8].encap pauseSent:sum 0
attr title "pause sent, sum"
scalar MeshLAN.router[9].eth[8].encap decapPk:count 3866
attr interpolationmode none
attr source decapPk
attr title "packets decapsulated, count"
scalar MeshLAN.router[9].eth[8].encap decapPk:sum(packetBytes) 2923820
attr interpolationmode none
attr source decapPk
attr title "packets decapsulated, sum(packetBytes)"
scalar MeshLAN.router[9].eth[8].encap encapPk:count 3948
attr interpolationmode none
attr source encapPk
attr title "packets encapsulated, count"
scalar MeshLAN.router[9].eth[8].encap encapPk:sum(packetBytes) 2999315
attr interpolationmode none
attr source encapPk
attr title "packets encapsulated, sum(packetBytes)"
scalar MeshLAN.router[9].eth[9].queue.pauseQueue queueLength:max nan
attr interpolationmode sample-hold
attr title "queue length, max"
scalar MeshLAN.router[9].eth[9].queue.pauseQueue queueLength:timeavg nan
attr interpolationmode sample-hold
attr title "queue length, timeavg"
statistic MeshLAN.router[9].eth[9].queue.pauseQueue queueingTime:histogram
field count 0
field mean nan
field stddev nan
field min nan
field max nan
field sum 0
field sqrsum 0
attr interpolationmode none
attr title "queueing time, histogram"
bin	-inf	0
bin	-0.5	0
bin	-0.46666666666667	0
bin	-0.43333333333333	0
bin	-0.4	0
bin	-0.36666666666667	0
bin	-0.33333333333333	0
bin	-0.3	0
bin	-0.26666666666667	0
bin	-0.23333333333333	0
bin	-0.2	0
bin	-0.16666666666667	0
bin	-0.13333333333333	0
bin	-0.1	0
bin	-0.066666666666667	0
bin	-0.033333333333333	0
bin	0	0
bin	0.033333333333333	0
bin	0.066666666666667	0
bin	0.1	0
bin	0.13333333333333	0
bin	0.16666666666667	0
bin	0.2	0
bin	0.23333333333333	0
bin	0.26666666666667	0
bin	0.3	0
bin	0.33333333333333	0
bin	0.36666666666667	0
bin	0.4	0
bin	0.43333333333333	0
bin	0.46666666666667	0
bin	0.5	0
scalar MeshLAN.router[9].eth[9].queue.pauseQueue dropPk:count 0
attr interpolationmode none
attr source dropPkByQueue
attr title "dropped packets, count"
scalar MeshLAN.router[9].eth[9].queue.pauseQueue dropPk:sum(packetBytes) 0
attr interpolationmode none
attr source dropPkByQueue
attr title "dropped packets, sum(packetBytes)"
scalar MeshLAN.router[9].eth[9].queue.pauseQueue rcvdPk:count 0
attr interpolationmode none
attr title "received packets, count"
scalar MeshLAN.router[9].eth[9].queue.pauseQueue rcvdPk:sum(packetBytes) 0
attr interpolationmode none
attr title "received packets, sum(packetBytes)"
scalar MeshLAN.router[9].eth[9].queue.dataQueue queueLength:max 3
attr interpolationmode sample-hold
attr title "queue length, max"
scalar MeshLAN.router[9].eth[9].queue.dataQueue queueLength:timeavg 0.053163008125129
attr interpolationmode sample-hold
attr title "queue length, timeavg"
statistic MeshLAN.router[9].eth[9].queue.dataQueue queueingTime:histogram
field count 3718
field mean 0.00021443933475578
field stddev 0.00036404113973083
field min 0
field max 0.002368722171
field sum 0.79728544662201
field sqrsum 0.0006635683221993
attr interpolationmode none
attr title "queueing time, histogram"
bin	-inf	0
bin	-0.0005167736945	0
bin	-0.00044787053523333	0
bin	-0.00037896737596667	0
bin	-0.0003100642167	0
bin	-0.00024116105743333	0
bin	-0.00017225789816667	0
bin	-0.0001033547389	0
bin	-3.4451579633333e-005	2530
bin	3.4451579633333e-005	29
bin	0.0001033547389	60
bin	0.00017225789816667	39
bin	0.00024116105743333	60
bin	0.0003100642167	65
bin	0.00037896737596667	68
bin	0.00044787053523333	76
bin	0.0005167736945	63
bin	0.00058567685376667	56
bin	0.00065458001303333	68
bin	0.0007234831723	68
bin	0.00079238633156667	403
bin	0.00086128949083333	14
bin	0.0009301926501	16
bin	0.00099909580936667	15
bin	0.0010679989686333	9
bin	0.0011369021279	17
bin	0.0012058052871667	12
bin	0.0012747084464333	8
bin	0.0013436116057	5
bin	0.0014125147649667	7
bin	0.0014814179242333	6
bin	0.0015503210835	24
scalar MeshLAN.router[9].eth[9].queue.dataQueue dropPk:count 0
attr interpolationmode none
attr source dropPkByQueue
attr title "dropped packets, count"
scalar MeshLAN.router[9].eth[9].queue.dataQueue dropPk:sum(packetBytes) 0
attr interpolationmode none
attr source dropPkByQueue
attr title "dropped packets, sum(packetBytes)"
scalar MeshLAN.router[9].eth[9].queue.dataQueue rcvdPk:count 3718
attr interpolationmode none
attr title "received packets, count"
scalar MeshLAN.router[9].eth[9].queue.dataQueue rcvdPk:sum(packetBytes) 2883105
attr interpolationmode none
attr title "received packets, sum(packetBytes)"
scalar MeshLAN.router[9].eth[9].mac "simulated time" 20
scalar MeshLAN.router[9].eth[9].mac full-duplex 1
scalar MeshLAN.router[9].eth[9].mac "frames/sec sent" 249.25
scalar MeshLAN.router[9].eth[9].mac "frames/sec rcvd" 247.4
scalar MeshLAN.router[9].eth[9].mac "bits/sec sent" 1546071.2
scalar MeshLAN.router[9].eth[9].mac "bits/sec rcvd" 1531234
scalar MeshLAN.router[9].eth[9].mac "rx channel idle (%)" 84.529324
scalar MeshLAN.router[9].eth[9].mac "rx channel utilization (%)" 15.470676
scalar MeshLAN.router[9].eth[9].mac rxPkFromHL:count 3718
attr interpolationmode none
attr source rxPkFromHL
attr title "packet bytes from higher layer, count"
scalar MeshLAN.router[9].eth[9].mac rxPkFromHL:sum(packetBytes) 2883105
attr interpolationmode none
attr source rxPkFromHL
attr title "packet bytes from higher layer, sum(packetBytes)"
scalar MeshLAN.router[9].eth[9].mac rxPausePkUnits:count 0
attr interpolationmode none
attr title "pause units received, count"
scalar MeshLAN.router[9].eth[9].mac rxPausePkUnits:sum 0
attr interpolationmode none
attr title "pause units received, sum"
scalar MeshLAN.router[9].eth[9].mac txPausePkUnits:count 0
attr interpolationmode none
attr title "pause units sent, count"
scalar MeshLAN.router[9].eth[9].mac txPausePkUnits:sum 0
attr interpolationmode none
attr title "pause units sent, sum"
scalar MeshLAN.router[9].eth[9].mac txPk:count 3718
attr interpolationmode none
attr source txPk
attr title "packets transmitted, count"
scalar MeshLAN.router[9].eth[9].mac txPk:sum(packetBytes) 2883105
attr interpolationmode none
attr source txPk
attr title "packets transmitted, sum(packetBytes)"
scalar MeshLAN.router[9].eth[9].mac droppedPkNotForUs:count 0
attr interpolationmode none
attr source dropPkNotForUs
attr title "packets dropped/not for us, count"
scalar MeshLAN.router[9].eth[9].mac droppedPkNotForUs:sum(packetBytes) 0
attr interpolationmode none
attr source dropPkNotForUs
attr title "packets dropped/not for us, sum(packetBytes)"
scalar MeshLAN.router[9].eth[9].mac droppedPkBitError:count 0
attr interpolationmode none
attr source dropPkBitError
attr title "packets dropped/bit error, count"
scalar MeshLAN.router[9].eth[9].mac droppedPkBitError:sum(packetBytes) 0
attr interpolationmode none
attr source dropPkBitError
attr title "packets dropped/bit error, sum(packetBytes)"
scalar MeshLAN.router[9].eth[9].mac droppedPkIfaceDown:count 0
attr interpolationmode none
attr source dropPkIfaceDown
attr title "packets dropped/interface down, count"
scalar MeshLAN.router[9].eth[9].mac droppedPkIfaceDown:sum(packetBytes) 0
attr interpolationmode none
attr source dropPkIfaceDown
attr title "packets dropped/interface down, sum(packetBytes)"
scalar MeshLAN.router[9].eth[9].mac rxPkOk:count 3698
attr interpolationmode none
attr source rxPkOk
attr title "packets received OK, count"
scalar MeshLAN.router[9].eth[9].mac rxPkOk:sum(packetBytes) 2864639
attr interpolationmode none
attr source rxPkOk
attr title "packets received OK, sum(packetBytes)"
scalar MeshLAN.router[9].eth[9].mac passedUpPk:count 3698
attr interpolationmode none
attr source packetSentToUpper
attr title "packets passed to higher layer, count"
scalar MeshLAN.router[9].eth[9].mac passedUpPk:sum(packetBytes) 2864639
attr interpolationmode none
attr source packetSentToUpper
attr title "packets passed to higher layer, sum(packetBytes)"
scalar MeshLAN.router[9].eth[9].encap pauseSent:count 0
attr title "pause sent, count"
scalar MeshLAN.router[9].eth[9].encap pauseSent:sum 0
attr title "pause sent, sum"
scalar MeshLAN.router[9].eth[9].encap decapPk:count 3698
attr interpolationmode none
attr source decapPk
attr title "packets decapsulated, count"
scalar MeshLAN.router[9].eth[9].encap decapPk:sum(packetBytes) 2797954
attr interpolationmode none
attr source decapPk
attr title "packets decapsulated, sum(packetBytes)"
scalar MeshLAN.router[9].eth[9].encap encapPk:count 3718
attr interpolationmode none
attr source encapPk
attr title "packets encapsulated, count"
scalar MeshLAN.router[9].eth[9].encap encapPk:sum(packetBytes) 2816049
attr interpolationmode none
attr source encapPk
attr title "packets encapsulated, sum(packetBytes)"

