version 2
run MeshLAN10-packetsize-0-20180110-21:45:57-2968
attr configname MeshLAN10-packetsize
attr datetime 20180110-21:45:57
attr experiment MeshLAN10-packetsize
attr inifile MeshLAN.ini
attr iterationvars $pa=1
attr iterationvarsf pa=1-
attr measurement $pa=1
attr network MeshLAN
attr processid 2968
attr repetition 0
attr replication #0
attr resultdir results
attr runnumber 0
attr seedset 0
itervar pa 1
param *.numHosts 10
param **.datarate 10Mbps
param **.host[*].pingApp[*].sendInterval "truncnormal(50ms, 25ms)"
param **.host[*].pingApp[*].packetSize "truncnormal(512B, 256B)"
param **.queueType "\"DropTailQueue\""
param **.frameCapacity 10
param **.mtu 1024B
param **.host[*].numPingApps 1
param **.host[*].pingApp[*].typename "\"PingApp\""
param **.host[*].pingApp[*].count 1
param **.host[*].pingApp[*].startTime "truncnormal(200ms, 100ms)"
param **.host[*].pingApp[*].destAddr "\"*\""

scalar MeshLAN.host[0].networkLayer.arp sentReply:count 0
attr title "ARP replies sent, count"
scalar MeshLAN.host[0].networkLayer.arp sentReq:count 0
attr title "ARP request sent, count"
scalar MeshLAN.host[0].networkLayer.arp failedARPResolution:count 0
attr title "ARP failed resolutions, count"
scalar MeshLAN.host[0].networkLayer.arp completedARPResolution:count 0
attr title "ARP completed resolutions, count"
scalar MeshLAN.host[0].networkLayer.arp initiatedARPResolution:count 0
attr title "ARP initiated resolutions, count"
scalar MeshLAN.host[0].lo0.lo droppedPkBitError:count 0
attr interpolationmode none
attr source dropPkBitError
attr title "packets dropped/bit error, count"
scalar MeshLAN.host[0].lo0.lo droppedPkBitError:sum(packetBytes) 0
attr interpolationmode none
attr source dropPkBitError
attr title "packets dropped/bit error, sum(packetBytes)"
scalar MeshLAN.host[0].lo0.lo rcvdPkFromHL:count 4
attr interpolationmode none
attr source packetReceivedFromUpper
attr title "packets received from higher layer, count"
scalar MeshLAN.host[0].lo0.lo rcvdPkFromHL:sum(packetBytes) 1080
attr interpolationmode none
attr source packetReceivedFromUpper
attr title "packets received from higher layer, sum(packetBytes)"
scalar MeshLAN.host[0].lo0.lo passedUpPk:count 4
attr interpolationmode none
attr source packetSentToUpper
attr title "packets passed to higher layer, count"
scalar MeshLAN.host[0].lo0.lo passedUpPk:sum(packetBytes) 1080
attr interpolationmode none
attr source packetSentToUpper
attr title "packets passed to higher layer, sum(packetBytes)"
scalar MeshLAN.host[0].eth[0].queue.pauseQueue queueLength:max nan
attr interpolationmode sample-hold
attr title "queue length, max"
scalar MeshLAN.host[0].eth[0].queue.pauseQueue queueLength:timeavg nan
attr interpolationmode sample-hold
attr title "queue length, timeavg"
statistic MeshLAN.host[0].eth[0].queue.pauseQueue queueingTime:histogram
field count 0
field mean nan
field stddev nan
field min nan
field max nan
field sum 0
field sqrsum 0
attr interpolationmode none
attr title "queueing time, histogram"
bin	-inf	0
bin	-0.5	0
bin	-0.46666666666667	0
bin	-0.43333333333333	0
bin	-0.4	0
bin	-0.36666666666667	0
bin	-0.33333333333333	0
bin	-0.3	0
bin	-0.26666666666667	0
bin	-0.23333333333333	0
bin	-0.2	0
bin	-0.16666666666667	0
bin	-0.13333333333333	0
bin	-0.1	0
bin	-0.066666666666667	0
bin	-0.033333333333333	0
bin	0	0
bin	0.033333333333333	0
bin	0.066666666666667	0
bin	0.1	0
bin	0.13333333333333	0
bin	0.16666666666667	0
bin	0.2	0
bin	0.23333333333333	0
bin	0.26666666666667	0
bin	0.3	0
bin	0.33333333333333	0
bin	0.36666666666667	0
bin	0.4	0
bin	0.43333333333333	0
bin	0.46666666666667	0
bin	0.5	0
scalar MeshLAN.host[0].eth[0].queue.pauseQueue dropPk:count 0
attr interpolationmode none
attr source dropPkByQueue
attr title "dropped packets, count"
scalar MeshLAN.host[0].eth[0].queue.pauseQueue dropPk:sum(packetBytes) 0
attr interpolationmode none
attr source dropPkByQueue
attr title "dropped packets, sum(packetBytes)"
scalar MeshLAN.host[0].eth[0].queue.pauseQueue rcvdPk:count 0
attr interpolationmode none
attr title "received packets, count"
scalar MeshLAN.host[0].eth[0].queue.pauseQueue rcvdPk:sum(packetBytes) 0
attr interpolationmode none
attr title "received packets, sum(packetBytes)"
scalar MeshLAN.host[0].eth[0].queue.dataQueue queueLength:max 1
attr interpolationmode sample-hold
attr title "queue length, max"
scalar MeshLAN.host[0].eth[0].queue.dataQueue queueLength:timeavg 7.1076984841131e-006
attr interpolationmode sample-hold
attr title "queue length, timeavg"
statistic MeshLAN.host[0].eth[0].queue.dataQueue queueingTime:histogram
field count 309
field mean 3.438736763754e-007
field stddev 6.044747599273e-006
field min 0
field max 0.000106256966
field sum 0.000106256966
field sqrsum 1.1290542823525e-008
attr interpolationmode none
attr title "queueing time, histogram"
bin	-inf	0
bin	-0.5	0
bin	-0.46666666666667	0
bin	-0.43333333333333	0
bin	-0.4	0
bin	-0.36666666666667	0
bin	-0.33333333333333	0
bin	-0.3	0
bin	-0.26666666666667	0
bin	-0.23333333333333	0
bin	-0.2	0
bin	-0.16666666666667	0
bin	-0.13333333333333	0
bin	-0.1	0
bin	-0.066666666666667	0
bin	-0.033333333333333	0
bin	0	309
bin	0.033333333333333	0
bin	0.066666666666667	0
bin	0.1	0
bin	0.13333333333333	0
bin	0.16666666666667	0
bin	0.2	0
bin	0.23333333333333	0
bin	0.26666666666667	0
bin	0.3	0
bin	0.33333333333333	0
bin	0.36666666666667	0
bin	0.4	0
bin	0.43333333333333	0
bin	0.46666666666667	0
bin	0.5	0
scalar MeshLAN.host[0].eth[0].queue.dataQueue dropPk:count 0
attr interpolationmode none
attr source dropPkByQueue
attr title "dropped packets, count"
scalar MeshLAN.host[0].eth[0].queue.dataQueue dropPk:sum(packetBytes) 0
attr interpolationmode none
attr source dropPkByQueue
attr title "dropped packets, sum(packetBytes)"
scalar MeshLAN.host[0].eth[0].queue.dataQueue rcvdPk:count 309
attr interpolationmode none
attr title "received packets, count"
scalar MeshLAN.host[0].eth[0].queue.dataQueue rcvdPk:sum(packetBytes) 97042
attr interpolationmode none
attr title "received packets, sum(packetBytes)"
scalar MeshLAN.host[0].eth[0].mac "simulated time" 20
scalar MeshLAN.host[0].eth[0].mac full-duplex 1
scalar MeshLAN.host[0].eth[0].mac "frames/sec sent" 20.7
scalar MeshLAN.host[0].eth[0].mac "frames/sec rcvd" 20.7
scalar MeshLAN.host[0].eth[0].mac "bits/sec sent" 52934.4
scalar MeshLAN.host[0].eth[0].mac "bits/sec rcvd" 52934.4
scalar MeshLAN.host[0].eth[0].mac "rx channel idle (%)" 99.457408
scalar MeshLAN.host[0].eth[0].mac "rx channel utilization (%)" 0.542592
scalar MeshLAN.host[0].eth[0].mac rxPkFromHL:count 309
attr interpolationmode none
attr source rxPkFromHL
attr title "packet bytes from higher layer, count"
scalar MeshLAN.host[0].eth[0].mac rxPkFromHL:sum(packetBytes) 97042
attr interpolationmode none
attr source rxPkFromHL
attr title "packet bytes from higher layer, sum(packetBytes)"
scalar MeshLAN.host[0].eth[0].mac rxPausePkUnits:count 0
attr interpolationmode none
attr title "pause units received, count"
scalar MeshLAN.host[0].eth[0].mac rxPausePkUnits:sum 0
attr interpolationmode none
attr title "pause units received, sum"
scalar MeshLAN.host[0].eth[0].mac txPausePkUnits:count 0
attr interpolationmode none
attr title "pause units sent, count"
scalar MeshLAN.host[0].eth[0].mac txPausePkUnits:sum 0
attr interpolationmode none
attr title "pause units sent, sum"
scalar MeshLAN.host[0].eth[0].mac txPk:count 309
attr interpolationmode none
attr source txPk
attr title "packets transmitted, count"
scalar MeshLAN.host[0].eth[0].mac txPk:sum(packetBytes) 97042
attr interpolationmode none
attr source txPk
attr title "packets transmitted, sum(packetBytes)"
scalar MeshLAN.host[0].eth[0].mac droppedPkNotForUs:count 0
attr interpolationmode none
attr source dropPkNotForUs
attr title "packets dropped/not for us, count"
scalar MeshLAN.host[0].eth[0].mac droppedPkNotForUs:sum(packetBytes) 0
attr interpolationmode none
attr source dropPkNotForUs
attr title "packets dropped/not for us, sum(packetBytes)"
scalar MeshLAN.host[0].eth[0].mac droppedPkBitError:count 0
attr interpolationmode none
attr source dropPkBitError
attr title "packets dropped/bit error, count"
scalar MeshLAN.host[0].eth[0].mac droppedPkBitError:sum(packetBytes) 0
attr interpolationmode none
attr source dropPkBitError
attr title "packets dropped/bit error, sum(packetBytes)"
scalar MeshLAN.host[0].eth[0].mac droppedPkIfaceDown:count 0
attr interpolationmode none
attr source dropPkIfaceDown
attr title "packets dropped/interface down, count"
scalar MeshLAN.host[0].eth[0].mac droppedPkIfaceDown:sum(packetBytes) 0
attr interpolationmode none
attr source dropPkIfaceDown
attr title "packets dropped/interface down, sum(packetBytes)"
scalar MeshLAN.host[0].eth[0].mac rxPkOk:count 309
attr interpolationmode none
attr source rxPkOk
attr title "packets received OK, count"
scalar MeshLAN.host[0].eth[0].mac rxPkOk:sum(packetBytes) 97042
attr interpolationmode none
attr source rxPkOk
attr title "packets received OK, sum(packetBytes)"
scalar MeshLAN.host[0].eth[0].mac passedUpPk:count 309
attr interpolationmode none
attr source packetSentToUpper
attr title "packets passed to higher layer, count"
scalar MeshLAN.host[0].eth[0].mac passedUpPk:sum(packetBytes) 97042
attr interpolationmode none
attr source packetSentToUpper
attr title "packets passed to higher layer, sum(packetBytes)"
scalar MeshLAN.host[0].eth[0].encap pauseSent:count 0
attr title "pause sent, count"
scalar MeshLAN.host[0].eth[0].encap pauseSent:sum 0
attr title "pause sent, sum"
scalar MeshLAN.host[0].eth[0].encap decapPk:count 309
attr interpolationmode none
attr source decapPk
attr title "packets decapsulated, count"
scalar MeshLAN.host[0].eth[0].encap decapPk:sum(packetBytes) 91480
attr interpolationmode none
attr source decapPk
attr title "packets decapsulated, sum(packetBytes)"
scalar MeshLAN.host[0].eth[0].encap encapPk:count 309
attr interpolationmode none
attr source encapPk
attr title "packets encapsulated, count"
scalar MeshLAN.host[0].eth[0].encap encapPk:sum(packetBytes) 91480
attr interpolationmode none
attr source encapPk
attr title "packets encapsulated, sum(packetBytes)"
scalar MeshLAN.host[0].pingApp[0] "Pings sent" 371
scalar MeshLAN.host[0].pingApp[0] "ping loss rate (%)" 0
scalar MeshLAN.host[0].pingApp[0] "ping out-of-order rate (%)" 0
scalar MeshLAN.host[0].pingApp[0] pingRxSeq:count 285
attr interpolationmode none
attr title "ping rx seq, count"
scalar MeshLAN.host[0].pingApp[0] pingTxSeq:count 285
attr interpolationmode none
attr title "ping tx seq, count"
scalar MeshLAN.host[0].pingApp[0] numOutOfOrderArrivals:last nan
attr interpolationmode none
attr title "ping out-of-order arrivals, last"
scalar MeshLAN.host[0].pingApp[0] numLost:last nan
attr interpolationmode none
attr title "pings lost, last"
scalar MeshLAN.host[0].pingApp[0] rtt:mean 0.00095837599103887
attr interpolationmode none
attr title "ping round-trip time, mean"
attr unit s
scalar MeshLAN.host[1].networkLayer.arp sentReply:count 0
attr title "ARP replies sent, count"
scalar MeshLAN.host[1].networkLayer.arp sentReq:count 0
attr title "ARP request sent, count"
scalar MeshLAN.host[1].networkLayer.arp failedARPResolution:count 0
attr title "ARP failed resolutions, count"
scalar MeshLAN.host[1].networkLayer.arp completedARPResolution:count 0
attr title "ARP completed resolutions, count"
scalar MeshLAN.host[1].networkLayer.arp initiatedARPResolution:count 0
attr title "ARP initiated resolutions, count"
scalar MeshLAN.host[1].lo0.lo droppedPkBitError:count 0
attr interpolationmode none
attr source dropPkBitError
attr title "packets dropped/bit error, count"
scalar MeshLAN.host[1].lo0.lo droppedPkBitError:sum(packetBytes) 0
attr interpolationmode none
attr source dropPkBitError
attr title "packets dropped/bit error, sum(packetBytes)"
scalar MeshLAN.host[1].lo0.lo rcvdPkFromHL:count 6
attr interpolationmode none
attr source packetReceivedFromUpper
attr title "packets received from higher layer, count"
scalar MeshLAN.host[1].lo0.lo rcvdPkFromHL:sum(packetBytes) 4548
attr interpolationmode none
attr source packetReceivedFromUpper
attr title "packets received from higher layer, sum(packetBytes)"
scalar MeshLAN.host[1].lo0.lo passedUpPk:count 6
attr interpolationmode none
attr source packetSentToUpper
attr title "packets passed to higher layer, count"
scalar MeshLAN.host[1].lo0.lo passedUpPk:sum(packetBytes) 4548
attr interpolationmode none
attr source packetSentToUpper
attr title "packets passed to higher layer, sum(packetBytes)"
scalar MeshLAN.host[1].eth[0].queue.pauseQueue queueLength:max nan
attr interpolationmode sample-hold
attr title "queue length, max"
scalar MeshLAN.host[1].eth[0].queue.pauseQueue queueLength:timeavg nan
attr interpolationmode sample-hold
attr title "queue length, timeavg"
statistic MeshLAN.host[1].eth[0].queue.pauseQueue queueingTime:histogram
field count 0
field mean nan
field stddev nan
field min nan
field max nan
field sum 0
field sqrsum 0
attr interpolationmode none
attr title "queueing time, histogram"
bin	-inf	0
bin	-0.5	0
bin	-0.46666666666667	0
bin	-0.43333333333333	0
bin	-0.4	0
bin	-0.36666666666667	0
bin	-0.33333333333333	0
bin	-0.3	0
bin	-0.26666666666667	0
bin	-0.23333333333333	0
bin	-0.2	0
bin	-0.16666666666667	0
bin	-0.13333333333333	0
bin	-0.1	0
bin	-0.066666666666667	0
bin	-0.033333333333333	0
bin	0	0
bin	0.033333333333333	0
bin	0.066666666666667	0
bin	0.1	0
bin	0.13333333333333	0
bin	0.16666666666667	0
bin	0.2	0
bin	0.23333333333333	0
bin	0.26666666666667	0
bin	0.3	0
bin	0.33333333333333	0
bin	0.36666666666667	0
bin	0.4	0
bin	0.43333333333333	0
bin	0.46666666666667	0
bin	0.5	0
scalar MeshLAN.host[1].eth[0].queue.pauseQueue dropPk:count 0
attr interpolationmode none
attr source dropPkByQueue
attr title "dropped packets, count"
scalar MeshLAN.host[1].eth[0].queue.pauseQueue dropPk:sum(packetBytes) 0
attr interpolationmode none
attr source dropPkByQueue
attr title "dropped packets, sum(packetBytes)"
scalar MeshLAN.host[1].eth[0].queue.pauseQueue rcvdPk:count 0
attr interpolationmode none
attr title "received packets, count"
scalar MeshLAN.host[1].eth[0].queue.pauseQueue rcvdPk:sum(packetBytes) 0
attr interpolationmode none
attr title "received packets, sum(packetBytes)"
scalar MeshLAN.host[1].eth[0].queue.dataQueue queueLength:max 1
attr interpolationmode sample-hold
attr title "queue length, max"
scalar MeshLAN.host[1].eth[0].queue.dataQueue queueLength:timeavg 0
attr interpolationmode sample-hold
attr title "queue length, timeavg"
statistic MeshLAN.host[1].eth[0].queue.dataQueue queueingTime:histogram
field count 296
field mean 0
field stddev 0
field min 0
field max 0
field sum 0
field sqrsum 0
attr interpolationmode none
attr title "queueing time, histogram"
bin	-inf	0
bin	-0.5	0
bin	-0.46666666666667	0
bin	-0.43333333333333	0
bin	-0.4	0
bin	-0.36666666666667	0
bin	-0.33333333333333	0
bin	-0.3	0
bin	-0.26666666666667	0
bin	-0.23333333333333	0
bin	-0.2	0
bin	-0.16666666666667	0
bin	-0.13333333333333	0
bin	-0.1	0
bin	-0.066666666666667	0
bin	-0.033333333333333	0
bin	0	296
bin	0.033333333333333	0
bin	0.066666666666667	0
bin	0.1	0
bin	0.13333333333333	0
bin	0.16666666666667	0
bin	0.2	0
bin	0.23333333333333	0
bin	0.26666666666667	0
bin	0.3	0
bin	0.33333333333333	0
bin	0.36666666666667	0
bin	0.4	0
bin	0.43333333333333	0
bin	0.46666666666667	0
bin	0.5	0
scalar MeshLAN.host[1].eth[0].queue.dataQueue dropPk:count 0
attr interpolationmode none
attr source dropPkByQueue
attr title "dropped packets, count"
scalar MeshLAN.host[1].eth[0].queue.dataQueue dropPk:sum(packetBytes) 0
attr interpolationmode none
attr source dropPkByQueue
attr title "dropped packets, sum(packetBytes)"
scalar MeshLAN.host[1].eth[0].queue.dataQueue rcvdPk:count 296
attr interpolationmode none
attr title "received packets, count"
scalar MeshLAN.host[1].eth[0].queue.dataQueue rcvdPk:sum(packetBytes) 226209
attr interpolationmode none
attr title "received packets, sum(packetBytes)"
scalar MeshLAN.host[1].eth[0].mac "simulated time" 20
scalar MeshLAN.host[1].eth[0].mac full-duplex 1
scalar MeshLAN.host[1].eth[0].mac "frames/sec sent" 19.6
scalar MeshLAN.host[1].eth[0].mac "frames/sec rcvd" 19.6
scalar MeshLAN.host[1].eth[0].mac "bits/sec sent" 119121.2
scalar MeshLAN.host[1].eth[0].mac "bits/sec rcvd" 119121.2
scalar MeshLAN.host[1].eth[0].mac "rx channel idle (%)" 98.796244
scalar MeshLAN.host[1].eth[0].mac "rx channel utilization (%)" 1.203756
scalar MeshLAN.host[1].eth[0].mac rxPkFromHL:count 296
attr interpolationmode none
attr source rxPkFromHL
attr title "packet bytes from higher layer, count"
scalar MeshLAN.host[1].eth[0].mac rxPkFromHL:sum(packetBytes) 226209
attr interpolationmode none
attr source rxPkFromHL
attr title "packet bytes from higher layer, sum(packetBytes)"
scalar MeshLAN.host[1].eth[0].mac rxPausePkUnits:count 0
attr interpolationmode none
attr title "pause units received, count"
scalar MeshLAN.host[1].eth[0].mac rxPausePkUnits:sum 0
attr interpolationmode none
attr title "pause units received, sum"
scalar MeshLAN.host[1].eth[0].mac txPausePkUnits:count 0
attr interpolationmode none
attr title "pause units sent, count"
scalar MeshLAN.host[1].eth[0].mac txPausePkUnits:sum 0
attr interpolationmode none
attr title "pause units sent, sum"
scalar MeshLAN.host[1].eth[0].mac txPk:count 296
attr interpolationmode none
attr source txPk
attr title "packets transmitted, count"
scalar MeshLAN.host[1].eth[0].mac txPk:sum(packetBytes) 226209
attr interpolationmode none
attr source txPk
attr title "packets transmitted, sum(packetBytes)"
scalar MeshLAN.host[1].eth[0].mac droppedPkNotForUs:count 0
attr interpolationmode none
attr source dropPkNotForUs
attr title "packets dropped/not for us, count"
scalar MeshLAN.host[1].eth[0].mac droppedPkNotForUs:sum(packetBytes) 0
attr interpolationmode none
attr source dropPkNotForUs
attr title "packets dropped/not for us, sum(packetBytes)"
scalar MeshLAN.host[1].eth[0].mac droppedPkBitError:count 0
attr interpolationmode none
attr source dropPkBitError
attr title "packets dropped/bit error, count"
scalar MeshLAN.host[1].eth[0].mac droppedPkBitError:sum(packetBytes) 0
attr interpolationmode none
attr source dropPkBitError
attr title "packets dropped/bit error, sum(packetBytes)"
scalar MeshLAN.host[1].eth[0].mac droppedPkIfaceDown:count 0
attr interpolationmode none
attr source dropPkIfaceDown
attr title "packets dropped/interface down, count"
scalar MeshLAN.host[1].eth[0].mac droppedPkIfaceDown:sum(packetBytes) 0
attr interpolationmode none
attr source dropPkIfaceDown
attr title "packets dropped/interface down, sum(packetBytes)"
scalar MeshLAN.host[1].eth[0].mac rxPkOk:count 296
attr interpolationmode none
attr source rxPkOk
attr title "packets received OK, count"
scalar MeshLAN.host[1].eth[0].mac rxPkOk:sum(packetBytes) 226209
attr interpolationmode none
attr source rxPkOk
attr title "packets received OK, sum(packetBytes)"
scalar MeshLAN.host[1].eth[0].mac passedUpPk:count 296
attr interpolationmode none
attr source packetSentToUpper
attr title "packets passed to higher layer, count"
scalar MeshLAN.host[1].eth[0].mac passedUpPk:sum(packetBytes) 226209
attr interpolationmode none
attr source packetSentToUpper
attr title "packets passed to higher layer, sum(packetBytes)"
scalar MeshLAN.host[1].eth[0].encap pauseSent:count 0
attr title "pause sent, count"
scalar MeshLAN.host[1].eth[0].encap pauseSent:sum 0
attr title "pause sent, sum"
scalar MeshLAN.host[1].eth[0].encap decapPk:count 296
attr interpolationmode none
attr source decapPk
attr title "packets decapsulated, count"
scalar MeshLAN.host[1].eth[0].encap decapPk:sum(packetBytes) 220881
attr interpolationmode none
attr source decapPk
attr title "packets decapsulated, sum(packetBytes)"
scalar MeshLAN.host[1].eth[0].encap encapPk:count 296
attr interpolationmode none
attr source encapPk
attr title "packets encapsulated, count"
scalar MeshLAN.host[1].eth[0].encap encapPk:sum(packetBytes) 220881
attr interpolationmode none
attr source encapPk
attr title "packets encapsulated, sum(packetBytes)"
scalar MeshLAN.host[1].pingApp[0] "Pings sent" 374
scalar MeshLAN.host[1].pingApp[0] "ping loss rate (%)" 0
scalar MeshLAN.host[1].pingApp[0] "ping out-of-order rate (%)" 0
scalar MeshLAN.host[1].pingApp[0] pingRxSeq:count 285
attr interpolationmode none
attr title "ping rx seq, count"
scalar MeshLAN.host[1].pingApp[0] pingTxSeq:count 285
attr interpolationmode none
attr title "ping tx seq, count"
scalar MeshLAN.host[1].pingApp[0] numOutOfOrderArrivals:last nan
attr interpolationmode none
attr title "ping out-of-order arrivals, last"
scalar MeshLAN.host[1].pingApp[0] numLost:last nan
attr interpolationmode none
attr title "pings lost, last"
scalar MeshLAN.host[1].pingApp[0] rtt:mean 0.0024878290395284
attr interpolationmode none
attr title "ping round-trip time, mean"
attr unit s
scalar MeshLAN.host[2].networkLayer.arp sentReply:count 0
attr title "ARP replies sent, count"
scalar MeshLAN.host[2].networkLayer.arp sentReq:count 0
attr title "ARP request sent, count"
scalar MeshLAN.host[2].networkLayer.arp failedARPResolution:count 0
attr title "ARP failed resolutions, count"
scalar MeshLAN.host[2].networkLayer.arp completedARPResolution:count 0
attr title "ARP completed resolutions, count"
scalar MeshLAN.host[2].networkLayer.arp initiatedARPResolution:count 0
attr title "ARP initiated resolutions, count"
scalar MeshLAN.host[2].lo0.lo droppedPkBitError:count 0
attr interpolationmode none
attr source dropPkBitError
attr title "packets dropped/bit error, count"
scalar MeshLAN.host[2].lo0.lo droppedPkBitError:sum(packetBytes) 0
attr interpolationmode none
attr source dropPkBitError
attr title "packets dropped/bit error, sum(packetBytes)"
scalar MeshLAN.host[2].lo0.lo rcvdPkFromHL:count 2
attr interpolationmode none
attr source packetReceivedFromUpper
attr title "packets received from higher layer, count"
scalar MeshLAN.host[2].lo0.lo rcvdPkFromHL:sum(packetBytes) 696
attr interpolationmode none
attr source packetReceivedFromUpper
attr title "packets received from higher layer, sum(packetBytes)"
scalar MeshLAN.host[2].lo0.lo passedUpPk:count 2
attr interpolationmode none
attr source packetSentToUpper
attr title "packets passed to higher layer, count"
scalar MeshLAN.host[2].lo0.lo passedUpPk:sum(packetBytes) 696
attr interpolationmode none
attr source packetSentToUpper
attr title "packets passed to higher layer, sum(packetBytes)"
scalar MeshLAN.host[2].eth[0].queue.pauseQueue queueLength:max nan
attr interpolationmode sample-hold
attr title "queue length, max"
scalar MeshLAN.host[2].eth[0].queue.pauseQueue queueLength:timeavg nan
attr interpolationmode sample-hold
attr title "queue length, timeavg"
statistic MeshLAN.host[2].eth[0].queue.pauseQueue queueingTime:histogram
field count 0
field mean nan
field stddev nan
field min nan
field max nan
field sum 0
field sqrsum 0
attr interpolationmode none
attr title "queueing time, histogram"
bin	-inf	0
bin	-0.5	0
bin	-0.46666666666667	0
bin	-0.43333333333333	0
bin	-0.4	0
bin	-0.36666666666667	0
bin	-0.33333333333333	0
bin	-0.3	0
bin	-0.26666666666667	0
bin	-0.23333333333333	0
bin	-0.2	0
bin	-0.16666666666667	0
bin	-0.13333333333333	0
bin	-0.1	0
bin	-0.066666666666667	0
bin	-0.033333333333333	0
bin	0	0
bin	0.033333333333333	0
bin	0.066666666666667	0
bin	0.1	0
bin	0.13333333333333	0
bin	0.16666666666667	0
bin	0.2	0
bin	0.23333333333333	0
bin	0.26666666666667	0
bin	0.3	0
bin	0.33333333333333	0
bin	0.36666666666667	0
bin	0.4	0
bin	0.43333333333333	0
bin	0.46666666666667	0
bin	0.5	0
scalar MeshLAN.host[2].eth[0].queue.pauseQueue dropPk:count 0
attr interpolationmode none
attr source dropPkByQueue
attr title "dropped packets, count"
scalar MeshLAN.host[2].eth[0].queue.pauseQueue dropPk:sum(packetBytes) 0
attr interpolationmode none
attr source dropPkByQueue
attr title "dropped packets, sum(packetBytes)"
scalar MeshLAN.host[2].eth[0].queue.pauseQueue rcvdPk:count 0
attr interpolationmode none
attr title "received packets, count"
scalar MeshLAN.host[2].eth[0].queue.pauseQueue rcvdPk:sum(packetBytes) 0
attr interpolationmode none
attr title "received packets, sum(packetBytes)"
scalar MeshLAN.host[2].eth[0].queue.dataQueue queueLength:max 1
attr interpolationmode sample-hold
attr title "queue length, max"
scalar MeshLAN.host[2].eth[0].queue.dataQueue queueLength:timeavg 4.4309785030381e-005
attr interpolationmode sample-hold
attr title "queue length, timeavg"
statistic MeshLAN.host[2].eth[0].queue.dataQueue queueingTime:histogram
field count 321
field mean 2.0675313021807e-006
field stddev 2.6242787652975e-005
field min 0
field max 0.000359380374
field sum 0.000663677548
field sqrsum 2.2175102332077e-007
attr interpolationmode none
attr title "queueing time, histogram"
bin	-inf	0
bin	-0.000179690187	0
bin	-0.0001557314954	0
bin	-0.0001317728038	0
bin	-0.0001078141122	0
bin	-8.38554206e-005	0
bin	-5.9896729e-005	0
bin	-3.59380374e-005	0
bin	-1.19793458e-005	319
bin	1.19793458e-005	0
bin	3.59380374e-005	0
bin	5.9896729e-005	0
bin	8.38554206e-005	0
bin	0.0001078141122	0
bin	0.0001317728038	0
bin	0.0001557314954	0
bin	0.000179690187	0
bin	0.0002036488786	0
bin	0.0002276075702	0
bin	0.0002515662618	0
bin	0.0002755249534	0
bin	0.000299483645	1
bin	0.0003234423366	0
bin	0.0003474010282	1
bin	0.0003713597198	0
bin	0.0003953184114	0
bin	0.000419277103	0
bin	0.0004432357946	0
bin	0.0004671944862	0
bin	0.0004911531778	0
bin	0.0005151118694	0
bin	0.000539070561	0
scalar MeshLAN.host[2].eth[0].queue.dataQueue dropPk:count 0
attr interpolationmode none
attr source dropPkByQueue
attr title "dropped packets, count"
scalar MeshLAN.host[2].eth[0].queue.dataQueue dropPk:sum(packetBytes) 0
attr interpolationmode none
attr source dropPkByQueue
attr title "dropped packets, sum(packetBytes)"
scalar MeshLAN.host[2].eth[0].queue.dataQueue rcvdPk:count 321
attr interpolationmode none
attr title "received packets, count"
scalar MeshLAN.host[2].eth[0].queue.dataQueue rcvdPk:sum(packetBytes) 123665
attr interpolationmode none
attr title "received packets, sum(packetBytes)"
scalar MeshLAN.host[2].eth[0].mac "simulated time" 20
scalar MeshLAN.host[2].eth[0].mac full-duplex 1
scalar MeshLAN.host[2].eth[0].mac "frames/sec sent" 21.3
scalar MeshLAN.host[2].eth[0].mac "frames/sec rcvd" 21.3
scalar MeshLAN.host[2].eth[0].mac "bits/sec sent" 65734.4
scalar MeshLAN.host[2].eth[0].mac "bits/sec rcvd" 65734.4
scalar MeshLAN.host[2].eth[0].mac "rx channel idle (%)" 99.329024
scalar MeshLAN.host[2].eth[0].mac "rx channel utilization (%)" 0.670976
scalar MeshLAN.host[2].eth[0].mac rxPkFromHL:count 321
attr interpolationmode none
attr source rxPkFromHL
attr title "packet bytes from higher layer, count"
scalar MeshLAN.host[2].eth[0].mac rxPkFromHL:sum(packetBytes) 123665
attr interpolationmode none
attr source rxPkFromHL
attr title "packet bytes from higher layer, sum(packetBytes)"
scalar MeshLAN.host[2].eth[0].mac rxPausePkUnits:count 0
attr interpolationmode none
attr title "pause units received, count"
scalar MeshLAN.host[2].eth[0].mac rxPausePkUnits:sum 0
attr interpolationmode none
attr title "pause units received, sum"
scalar MeshLAN.host[2].eth[0].mac txPausePkUnits:count 0
attr interpolationmode none
attr title "pause units sent, count"
scalar MeshLAN.host[2].eth[0].mac txPausePkUnits:sum 0
attr interpolationmode none
attr title "pause units sent, sum"
scalar MeshLAN.host[2].eth[0].mac txPk:count 321
attr interpolationmode none
attr source txPk
attr title "packets transmitted, count"
scalar MeshLAN.host[2].eth[0].mac txPk:sum(packetBytes) 123665
attr interpolationmode none
attr source txPk
attr title "packets transmitted, sum(packetBytes)"
scalar MeshLAN.host[2].eth[0].mac droppedPkNotForUs:count 0
attr interpolationmode none
attr source dropPkNotForUs
attr title "packets dropped/not for us, count"
scalar MeshLAN.host[2].eth[0].mac droppedPkNotForUs:sum(packetBytes) 0
attr interpolationmode none
attr source dropPkNotForUs
attr title "packets dropped/not for us, sum(packetBytes)"
scalar MeshLAN.host[2].eth[0].mac droppedPkBitError:count 0
attr interpolationmode none
attr source dropPkBitError
attr title "packets dropped/bit error, count"
scalar MeshLAN.host[2].eth[0].mac droppedPkBitError:sum(packetBytes) 0
attr interpolationmode none
attr source dropPkBitError
attr title "packets dropped/bit error, sum(packetBytes)"
scalar MeshLAN.host[2].eth[0].mac droppedPkIfaceDown:count 0
attr interpolationmode none
attr source dropPkIfaceDown
attr title "packets dropped/interface down, count"
scalar MeshLAN.host[2].eth[0].mac droppedPkIfaceDown:sum(packetBytes) 0
attr interpolationmode none
attr source dropPkIfaceDown
attr title "packets dropped/interface down, sum(packetBytes)"
scalar MeshLAN.host[2].eth[0].mac rxPkOk:count 321
attr interpolationmode none
attr source rxPkOk
attr title "packets received OK, count"
scalar MeshLAN.host[2].eth[0].mac rxPkOk:sum(packetBytes) 123665
attr interpolationmode none
attr source rxPkOk
attr title "packets received OK, sum(packetBytes)"
scalar MeshLAN.host[2].eth[0].mac passedUpPk:count 321
attr interpolationmode none
attr source packetSentToUpper
attr title "packets passed to higher layer, count"
scalar MeshLAN.host[2].eth[0].mac passedUpPk:sum(packetBytes) 123665
attr interpolationmode none
attr source packetSentToUpper
attr title "packets passed to higher layer, sum(packetBytes)"
scalar MeshLAN.host[2].eth[0].encap pauseSent:count 0
attr title "pause sent, count"
scalar MeshLAN.host[2].eth[0].encap pauseSent:sum 0
attr title "pause sent, sum"
scalar MeshLAN.host[2].eth[0].encap decapPk:count 321
attr interpolationmode none
attr source decapPk
attr title "packets decapsulated, count"
scalar MeshLAN.host[2].eth[0].encap decapPk:sum(packetBytes) 117887
attr interpolationmode none
attr source decapPk
attr title "packets decapsulated, sum(packetBytes)"
scalar MeshLAN.host[2].eth[0].encap encapPk:count 321
attr interpolationmode none
attr source encapPk
attr title "packets encapsulated, count"
scalar MeshLAN.host[2].eth[0].encap encapPk:sum(packetBytes) 117887
attr interpolationmode none
attr source encapPk
attr title "packets encapsulated, sum(packetBytes)"
scalar MeshLAN.host[2].pingApp[0] "Pings sent" 389
scalar MeshLAN.host[2].pingApp[0] "ping loss rate (%)" 0
scalar MeshLAN.host[2].pingApp[0] "ping out-of-order rate (%)" 0
scalar MeshLAN.host[2].pingApp[0] pingRxSeq:count 294
attr interpolationmode none
attr title "ping rx seq, count"
scalar MeshLAN.host[2].pingApp[0] pingTxSeq:count 294
attr interpolationmode none
attr title "ping tx seq, count"
scalar MeshLAN.host[2].pingApp[0] numOutOfOrderArrivals:last nan
attr interpolationmode none
attr title "ping out-of-order arrivals, last"
scalar MeshLAN.host[2].pingApp[0] numLost:last nan
attr interpolationmode none
attr title "pings lost, last"
scalar MeshLAN.host[2].pingApp[0] rtt:mean 0.001175187985355
attr interpolationmode none
attr title "ping round-trip time, mean"
attr unit s
scalar MeshLAN.host[3].networkLayer.arp sentReply:count 0
attr title "ARP replies sent, count"
scalar MeshLAN.host[3].networkLayer.arp sentReq:count 0
attr title "ARP request sent, count"
scalar MeshLAN.host[3].networkLayer.arp failedARPResolution:count 0
attr title "ARP failed resolutions, count"
scalar MeshLAN.host[3].networkLayer.arp completedARPResolution:count 0
attr title "ARP completed resolutions, count"
scalar MeshLAN.host[3].networkLayer.arp initiatedARPResolution:count 0
attr title "ARP initiated resolutions, count"
scalar MeshLAN.host[3].lo0.lo droppedPkBitError:count 0
attr interpolationmode none
attr source dropPkBitError
attr title "packets dropped/bit error, count"
scalar MeshLAN.host[3].lo0.lo droppedPkBitError:sum(packetBytes) 0
attr interpolationmode none
attr source dropPkBitError
attr title "packets dropped/bit error, sum(packetBytes)"
scalar MeshLAN.host[3].lo0.lo rcvdPkFromHL:count 2
attr interpolationmode none
attr source packetReceivedFromUpper
attr title "packets received from higher layer, count"
scalar MeshLAN.host[3].lo0.lo rcvdPkFromHL:sum(packetBytes) 918
attr interpolationmode none
attr source packetReceivedFromUpper
attr title "packets received from higher layer, sum(packetBytes)"
scalar MeshLAN.host[3].lo0.lo passedUpPk:count 2
attr interpolationmode none
attr source packetSentToUpper
attr title "packets passed to higher layer, count"
scalar MeshLAN.host[3].lo0.lo passedUpPk:sum(packetBytes) 918
attr interpolationmode none
attr source packetSentToUpper
attr title "packets passed to higher layer, sum(packetBytes)"
scalar MeshLAN.host[3].eth[0].queue.pauseQueue queueLength:max nan
attr interpolationmode sample-hold
attr title "queue length, max"
scalar MeshLAN.host[3].eth[0].queue.pauseQueue queueLength:timeavg nan
attr interpolationmode sample-hold
attr title "queue length, timeavg"
statistic MeshLAN.host[3].eth[0].queue.pauseQueue queueingTime:histogram
field count 0
field mean nan
field stddev nan
field min nan
field max nan
field sum 0
field sqrsum 0
attr interpolationmode none
attr title "queueing time, histogram"
bin	-inf	0
bin	-0.5	0
bin	-0.46666666666667	0
bin	-0.43333333333333	0
bin	-0.4	0
bin	-0.36666666666667	0
bin	-0.33333333333333	0
bin	-0.3	0
bin	-0.26666666666667	0
bin	-0.23333333333333	0
bin	-0.2	0
bin	-0.16666666666667	0
bin	-0.13333333333333	0
bin	-0.1	0
bin	-0.066666666666667	0
bin	-0.033333333333333	0
bin	0	0
bin	0.033333333333333	0
bin	0.066666666666667	0
bin	0.1	0
bin	0.13333333333333	0
bin	0.16666666666667	0
bin	0.2	0
bin	0.23333333333333	0
bin	0.26666666666667	0
bin	0.3	0
bin	0.33333333333333	0
bin	0.36666666666667	0
bin	0.4	0
bin	0.43333333333333	0
bin	0.46666666666667	0
bin	0.5	0
scalar MeshLAN.host[3].eth[0].queue.pauseQueue dropPk:count 0
attr interpolationmode none
attr source dropPkByQueue
attr title "dropped packets, count"
scalar MeshLAN.host[3].eth[0].queue.pauseQueue dropPk:sum(packetBytes) 0
attr interpolationmode none
attr source dropPkByQueue
attr title "dropped packets, sum(packetBytes)"
scalar MeshLAN.host[3].eth[0].queue.pauseQueue rcvdPk:count 0
attr interpolationmode none
attr title "received packets, count"
scalar MeshLAN.host[3].eth[0].queue.pauseQueue rcvdPk:sum(packetBytes) 0
attr interpolationmode none
attr title "received packets, sum(packetBytes)"
scalar MeshLAN.host[3].eth[0].queue.dataQueue queueLength:max 1
attr interpolationmode sample-hold
attr title "queue length, max"
scalar MeshLAN.host[3].eth[0].queue.dataQueue queueLength:timeavg 0
attr interpolationmode sample-hold
attr title "queue length, timeavg"
statistic MeshLAN.host[3].eth[0].queue.dataQueue queueingTime:histogram
field count 321
field mean 0
field stddev 0
field min 0
field max 0
field sum 0
field sqrsum 0
attr interpolationmode none
attr title "queueing time, histogram"
bin	-inf	0
bin	-0.5	0
bin	-0.46666666666667	0
bin	-0.43333333333333	0
bin	-0.4	0
bin	-0.36666666666667	0
bin	-0.33333333333333	0
bin	-0.3	0
bin	-0.26666666666667	0
bin	-0.23333333333333	0
bin	-0.2	0
bin	-0.16666666666667	0
bin	-0.13333333333333	0
bin	-0.1	0
bin	-0.066666666666667	0
bin	-0.033333333333333	0
bin	0	321
bin	0.033333333333333	0
bin	0.066666666666667	0
bin	0.1	0
bin	0.13333333333333	0
bin	0.16666666666667	0
bin	0.2	0
bin	0.23333333333333	0
bin	0.26666666666667	0
bin	0.3	0
bin	0.33333333333333	0
bin	0.36666666666667	0
bin	0.4	0
bin	0.43333333333333	0
bin	0.46666666666667	0
bin	0.5	0
scalar MeshLAN.host[3].eth[0].queue.dataQueue dropPk:count 0
attr interpolationmode none
attr source dropPkByQueue
attr title "dropped packets, count"
scalar MeshLAN.host[3].eth[0].queue.dataQueue dropPk:sum(packetBytes) 0
attr interpolationmode none
attr source dropPkByQueue
attr title "dropped packets, sum(packetBytes)"
scalar MeshLAN.host[3].eth[0].queue.dataQueue rcvdPk:count 321
attr interpolationmode none
attr title "received packets, count"
scalar MeshLAN.host[3].eth[0].queue.dataQueue rcvdPk:sum(packetBytes) 153396
attr interpolationmode none
attr title "received packets, sum(packetBytes)"
scalar MeshLAN.host[3].eth[0].mac "simulated time" 20
scalar MeshLAN.host[3].eth[0].mac full-duplex 1
scalar MeshLAN.host[3].eth[0].mac "frames/sec sent" 20.6
scalar MeshLAN.host[3].eth[0].mac "frames/sec rcvd" 20.6
scalar MeshLAN.host[3].eth[0].mac "bits/sec sent" 78477.2
scalar MeshLAN.host[3].eth[0].mac "bits/sec rcvd" 78477.2
scalar MeshLAN.host[3].eth[0].mac "rx channel idle (%)" 99.202044
scalar MeshLAN.host[3].eth[0].mac "rx channel utilization (%)" 0.797956
scalar MeshLAN.host[3].eth[0].mac rxPkFromHL:count 321
attr interpolationmode none
attr source rxPkFromHL
attr title "packet bytes from higher layer, count"
scalar MeshLAN.host[3].eth[0].mac rxPkFromHL:sum(packetBytes) 153396
attr interpolationmode none
attr source rxPkFromHL
attr title "packet bytes from higher layer, sum(packetBytes)"
scalar MeshLAN.host[3].eth[0].mac rxPausePkUnits:count 0
attr interpolationmode none
attr title "pause units received, count"
scalar MeshLAN.host[3].eth[0].mac rxPausePkUnits:sum 0
attr interpolationmode none
attr title "pause units received, sum"
scalar MeshLAN.host[3].eth[0].mac txPausePkUnits:count 0
attr interpolationmode none
attr title "pause units sent, count"
scalar MeshLAN.host[3].eth[0].mac txPausePkUnits:sum 0
attr interpolationmode none
attr title "pause units sent, sum"
scalar MeshLAN.host[3].eth[0].mac txPk:count 321
attr interpolationmode none
attr source txPk
attr title "packets transmitted, count"
scalar MeshLAN.host[3].eth[0].mac txPk:sum(packetBytes) 153396
attr interpolationmode none
attr source txPk
attr title "packets transmitted, sum(packetBytes)"
scalar MeshLAN.host[3].eth[0].mac droppedPkNotForUs:count 0
attr interpolationmode none
attr source dropPkNotForUs
attr title "packets dropped/not for us, count"
scalar MeshLAN.host[3].eth[0].mac droppedPkNotForUs:sum(packetBytes) 0
attr interpolationmode none
attr source dropPkNotForUs
attr title "packets dropped/not for us, sum(packetBytes)"
scalar MeshLAN.host[3].eth[0].mac droppedPkBitError:count 0
attr interpolationmode none
attr source dropPkBitError
attr title "packets dropped/bit error, count"
scalar MeshLAN.host[3].eth[0].mac droppedPkBitError:sum(packetBytes) 0
attr interpolationmode none
attr source dropPkBitError
attr title "packets dropped/bit error, sum(packetBytes)"
scalar MeshLAN.host[3].eth[0].mac droppedPkIfaceDown:count 0
attr interpolationmode none
attr source dropPkIfaceDown
attr title "packets dropped/interface down, count"
scalar MeshLAN.host[3].eth[0].mac droppedPkIfaceDown:sum(packetBytes) 0
attr interpolationmode none
attr source dropPkIfaceDown
attr title "packets dropped/interface down, sum(packetBytes)"
scalar MeshLAN.host[3].eth[0].mac rxPkOk:count 321
attr interpolationmode none
attr source rxPkOk
attr title "packets received OK, count"
scalar MeshLAN.host[3].eth[0].mac rxPkOk:sum(packetBytes) 153396
attr interpolationmode none
attr source rxPkOk
attr title "packets received OK, sum(packetBytes)"
scalar MeshLAN.host[3].eth[0].mac passedUpPk:count 321
attr interpolationmode none
attr source packetSentToUpper
attr title "packets passed to higher layer, count"
scalar MeshLAN.host[3].eth[0].mac passedUpPk:sum(packetBytes) 153396
attr interpolationmode none
attr source packetSentToUpper
attr title "packets passed to higher layer, sum(packetBytes)"
scalar MeshLAN.host[3].eth[0].encap pauseSent:count 0
attr title "pause sent, count"
scalar MeshLAN.host[3].eth[0].encap pauseSent:sum 0
attr title "pause sent, sum"
scalar MeshLAN.host[3].eth[0].encap decapPk:count 321
attr interpolationmode none
attr source decapPk
attr title "packets decapsulated, count"
scalar MeshLAN.host[3].eth[0].encap decapPk:sum(packetBytes) 147618
attr interpolationmode none
attr source decapPk
attr title "packets decapsulated, sum(packetBytes)"
scalar MeshLAN.host[3].eth[0].encap encapPk:count 321
attr interpolationmode none
attr source encapPk
attr title "packets encapsulated, count"
scalar MeshLAN.host[3].eth[0].encap encapPk:sum(packetBytes) 147618
attr interpolationmode none
attr source encapPk
attr title "packets encapsulated, sum(packetBytes)"
scalar MeshLAN.host[3].pingApp[0] "Pings sent" 378
scalar MeshLAN.host[3].pingApp[0] "ping loss rate (%)" 0
scalar MeshLAN.host[3].pingApp[0] "ping out-of-order rate (%)" 0
scalar MeshLAN.host[3].pingApp[0] pingRxSeq:count 291
attr interpolationmode none
attr title "ping rx seq, count"
scalar MeshLAN.host[3].pingApp[0] pingTxSeq:count 291
attr interpolationmode none
attr title "ping tx seq, count"
scalar MeshLAN.host[3].pingApp[0] numOutOfOrderArrivals:last nan
attr interpolationmode none
attr title "ping out-of-order arrivals, last"
scalar MeshLAN.host[3].pingApp[0] numLost:last nan
attr interpolationmode none
attr title "pings lost, last"
scalar MeshLAN.host[3].pingApp[0] rtt:mean 0.0015099639554862
attr interpolationmode none
attr title "ping round-trip time, mean"
attr unit s
scalar MeshLAN.host[4].networkLayer.arp sentReply:count 0
attr title "ARP replies sent, count"
scalar MeshLAN.host[4].networkLayer.arp sentReq:count 0
attr title "ARP request sent, count"
scalar MeshLAN.host[4].networkLayer.arp failedARPResolution:count 0
attr title "ARP failed resolutions, count"
scalar MeshLAN.host[4].networkLayer.arp completedARPResolution:count 0
attr title "ARP completed resolutions, count"
scalar MeshLAN.host[4].networkLayer.arp initiatedARPResolution:count 0
attr title "ARP initiated resolutions, count"
scalar MeshLAN.host[4].lo0.lo droppedPkBitError:count 0
attr interpolationmode none
attr source dropPkBitError
attr title "packets dropped/bit error, count"
scalar MeshLAN.host[4].lo0.lo droppedPkBitError:sum(packetBytes) 0
attr interpolationmode none
attr source dropPkBitError
attr title "packets dropped/bit error, sum(packetBytes)"
scalar MeshLAN.host[4].lo0.lo rcvdPkFromHL:count 6
attr interpolationmode none
attr source packetReceivedFromUpper
attr title "packets received from higher layer, count"
scalar MeshLAN.host[4].lo0.lo rcvdPkFromHL:sum(packetBytes) 2676
attr interpolationmode none
attr source packetReceivedFromUpper
attr title "packets received from higher layer, sum(packetBytes)"
scalar MeshLAN.host[4].lo0.lo passedUpPk:count 6
attr interpolationmode none
attr source packetSentToUpper
attr title "packets passed to higher layer, count"
scalar MeshLAN.host[4].lo0.lo passedUpPk:sum(packetBytes) 2676
attr interpolationmode none
attr source packetSentToUpper
attr title "packets passed to higher layer, sum(packetBytes)"
scalar MeshLAN.host[4].eth[0].queue.pauseQueue queueLength:max nan
attr interpolationmode sample-hold
attr title "queue length, max"
scalar MeshLAN.host[4].eth[0].queue.pauseQueue queueLength:timeavg nan
attr interpolationmode sample-hold
attr title "queue length, timeavg"
statistic MeshLAN.host[4].eth[0].queue.pauseQueue queueingTime:histogram
field count 0
field mean nan
field stddev nan
field min nan
field max nan
field sum 0
field sqrsum 0
attr interpolationmode none
attr title "queueing time, histogram"
bin	-inf	0
bin	-0.5	0
bin	-0.46666666666667	0
bin	-0.43333333333333	0
bin	-0.4	0
bin	-0.36666666666667	0
bin	-0.33333333333333	0
bin	-0.3	0
bin	-0.26666666666667	0
bin	-0.23333333333333	0
bin	-0.2	0
bin	-0.16666666666667	0
bin	-0.13333333333333	0
bin	-0.1	0
bin	-0.066666666666667	0
bin	-0.033333333333333	0
bin	0	0
bin	0.033333333333333	0
bin	0.066666666666667	0
bin	0.1	0
bin	0.13333333333333	0
bin	0.16666666666667	0
bin	0.2	0
bin	0.23333333333333	0
bin	0.26666666666667	0
bin	0.3	0
bin	0.33333333333333	0
bin	0.36666666666667	0
bin	0.4	0
bin	0.43333333333333	0
bin	0.46666666666667	0
bin	0.5	0
scalar MeshLAN.host[4].eth[0].queue.pauseQueue dropPk:count 0
attr interpolationmode none
attr source dropPkByQueue
attr title "dropped packets, count"
scalar MeshLAN.host[4].eth[0].queue.pauseQueue dropPk:sum(packetBytes) 0
attr interpolationmode none
attr source dropPkByQueue
attr title "dropped packets, sum(packetBytes)"
scalar MeshLAN.host[4].eth[0].queue.pauseQueue rcvdPk:count 0
attr interpolationmode none
attr title "received packets, count"
scalar MeshLAN.host[4].eth[0].queue.pauseQueue rcvdPk:sum(packetBytes) 0
attr interpolationmode none
attr title "received packets, sum(packetBytes)"
scalar MeshLAN.host[4].eth[0].queue.dataQueue queueLength:max 1
attr interpolationmode sample-hold
attr title "queue length, max"
scalar MeshLAN.host[4].eth[0].queue.dataQueue queueLength:timeavg 0
attr interpolationmode sample-hold
attr title "queue length, timeavg"
statistic MeshLAN.host[4].eth[0].queue.dataQueue queueingTime:histogram
field count 307
field mean 0
field stddev 0
field min 0
field max 0
field sum 0
field sqrsum 0
attr interpolationmode none
attr title "queueing time, histogram"
bin	-inf	0
bin	-0.5	0
bin	-0.46666666666667	0
bin	-0.43333333333333	0
bin	-0.4	0
bin	-0.36666666666667	0
bin	-0.33333333333333	0
bin	-0.3	0
bin	-0.26666666666667	0
bin	-0.23333333333333	0
bin	-0.2	0
bin	-0.16666666666667	0
bin	-0.13333333333333	0
bin	-0.1	0
bin	-0.066666666666667	0
bin	-0.033333333333333	0
bin	0	307
bin	0.033333333333333	0
bin	0.066666666666667	0
bin	0.1	0
bin	0.13333333333333	0
bin	0.16666666666667	0
bin	0.2	0
bin	0.23333333333333	0
bin	0.26666666666667	0
bin	0.3	0
bin	0.33333333333333	0
bin	0.36666666666667	0
bin	0.4	0
bin	0.43333333333333	0
bin	0.46666666666667	0
bin	0.5	0
scalar MeshLAN.host[4].eth[0].queue.dataQueue dropPk:count 0
attr interpolationmode none
attr source dropPkByQueue
attr title "dropped packets, count"
scalar MeshLAN.host[4].eth[0].queue.dataQueue dropPk:sum(packetBytes) 0
attr interpolationmode none
attr source dropPkByQueue
attr title "dropped packets, sum(packetBytes)"
scalar MeshLAN.host[4].eth[0].queue.dataQueue rcvdPk:count 307
attr interpolationmode none
attr title "received packets, count"
scalar MeshLAN.host[4].eth[0].queue.dataQueue rcvdPk:sum(packetBytes) 143401
attr interpolationmode none
attr title "received packets, sum(packetBytes)"
scalar MeshLAN.host[4].eth[0].mac "simulated time" 20
scalar MeshLAN.host[4].eth[0].mac full-duplex 1
scalar MeshLAN.host[4].eth[0].mac "frames/sec sent" 20.6
scalar MeshLAN.host[4].eth[0].mac "frames/sec rcvd" 20.6
scalar MeshLAN.host[4].eth[0].mac "bits/sec sent" 76744.8
scalar MeshLAN.host[4].eth[0].mac "bits/sec rcvd" 76744.8
scalar MeshLAN.host[4].eth[0].mac "rx channel idle (%)" 99.219368
scalar MeshLAN.host[4].eth[0].mac "rx channel utilization (%)" 0.780632
scalar MeshLAN.host[4].eth[0].mac rxPkFromHL:count 307
attr interpolationmode none
attr source rxPkFromHL
attr title "packet bytes from higher layer, count"
scalar MeshLAN.host[4].eth[0].mac rxPkFromHL:sum(packetBytes) 143401
attr interpolationmode none
attr source rxPkFromHL
attr title "packet bytes from higher layer, sum(packetBytes)"
scalar MeshLAN.host[4].eth[0].mac rxPausePkUnits:count 0
attr interpolationmode none
attr title "pause units received, count"
scalar MeshLAN.host[4].eth[0].mac rxPausePkUnits:sum 0
attr interpolationmode none
attr title "pause units received, sum"
scalar MeshLAN.host[4].eth[0].mac txPausePkUnits:count 0
attr interpolationmode none
attr title "pause units sent, count"
scalar MeshLAN.host[4].eth[0].mac txPausePkUnits:sum 0
attr interpolationmode none
attr title "pause units sent, sum"
scalar MeshLAN.host[4].eth[0].mac txPk:count 307
attr interpolationmode none
attr source txPk
attr title "packets transmitted, count"
scalar MeshLAN.host[4].eth[0].mac txPk:sum(packetBytes) 143401
attr interpolationmode none
attr source txPk
attr title "packets transmitted, sum(packetBytes)"
scalar MeshLAN.host[4].eth[0].mac droppedPkNotForUs:count 0
attr interpolationmode none
attr source dropPkNotForUs
attr title "packets dropped/not for us, count"
scalar MeshLAN.host[4].eth[0].mac droppedPkNotForUs:sum(packetBytes) 0
attr interpolationmode none
attr source dropPkNotForUs
attr title "packets dropped/not for us, sum(packetBytes)"
scalar MeshLAN.host[4].eth[0].mac droppedPkBitError:count 0
attr interpolationmode none
attr source dropPkBitError
attr title "packets dropped/bit error, count"
scalar MeshLAN.host[4].eth[0].mac droppedPkBitError:sum(packetBytes) 0
attr interpolationmode none
attr source dropPkBitError
attr title "packets dropped/bit error, sum(packetBytes)"
scalar MeshLAN.host[4].eth[0].mac droppedPkIfaceDown:count 0
attr interpolationmode none
attr source dropPkIfaceDown
attr title "packets dropped/interface down, count"
scalar MeshLAN.host[4].eth[0].mac droppedPkIfaceDown:sum(packetBytes) 0
attr interpolationmode none
attr source dropPkIfaceDown
attr title "packets dropped/interface down, sum(packetBytes)"
scalar MeshLAN.host[4].eth[0].mac rxPkOk:count 307
attr interpolationmode none
attr source rxPkOk
attr title "packets received OK, count"
scalar MeshLAN.host[4].eth[0].mac rxPkOk:sum(packetBytes) 143401
attr interpolationmode none
attr source rxPkOk
attr title "packets received OK, sum(packetBytes)"
scalar MeshLAN.host[4].eth[0].mac passedUpPk:count 307
attr interpolationmode none
attr source packetSentToUpper
attr title "packets passed to higher layer, count"
scalar MeshLAN.host[4].eth[0].mac passedUpPk:sum(packetBytes) 143401
attr interpolationmode none
attr source packetSentToUpper
attr title "packets passed to higher layer, sum(packetBytes)"
scalar MeshLAN.host[4].eth[0].encap pauseSent:count 0
attr title "pause sent, count"
scalar MeshLAN.host[4].eth[0].encap pauseSent:sum 0
attr title "pause sent, sum"
scalar MeshLAN.host[4].eth[0].encap decapPk:count 307
attr interpolationmode none
attr source decapPk
attr title "packets decapsulated, count"
scalar MeshLAN.host[4].eth[0].encap decapPk:sum(packetBytes) 137875
attr interpolationmode none
attr source decapPk
attr title "packets decapsulated, sum(packetBytes)"
scalar MeshLAN.host[4].eth[0].encap encapPk:count 307
attr interpolationmode none
attr source encapPk
attr title "packets encapsulated, count"
scalar MeshLAN.host[4].eth[0].encap encapPk:sum(packetBytes) 137875
attr interpolationmode none
attr source encapPk
attr title "packets encapsulated, sum(packetBytes)"
scalar MeshLAN.host[4].pingApp[0] "Pings sent" 398
scalar MeshLAN.host[4].pingApp[0] "ping loss rate (%)" 0
scalar MeshLAN.host[4].pingApp[0] "ping out-of-order rate (%)" 0
scalar MeshLAN.host[4].pingApp[0] pingRxSeq:count 299
attr interpolationmode none
attr title "ping rx seq, count"
scalar MeshLAN.host[4].pingApp[0] pingTxSeq:count 299
attr interpolationmode none
attr title "ping tx seq, count"
scalar MeshLAN.host[4].pingApp[0] numOutOfOrderArrivals:last nan
attr interpolationmode none
attr title "ping out-of-order arrivals, last"
scalar MeshLAN.host[4].pingApp[0] numLost:last nan
attr interpolationmode none
attr title "pings lost, last"
scalar MeshLAN.host[4].pingApp[0] rtt:mean 0.0015040609468412
attr interpolationmode none
attr title "ping round-trip time, mean"
attr unit s
scalar MeshLAN.host[5].networkLayer.arp sentReply:count 0
attr title "ARP replies sent, count"
scalar MeshLAN.host[5].networkLayer.arp sentReq:count 0
attr title "ARP request sent, count"
scalar MeshLAN.host[5].networkLayer.arp failedARPResolution:count 0
attr title "ARP failed resolutions, count"
scalar MeshLAN.host[5].networkLayer.arp completedARPResolution:count 0
attr title "ARP completed resolutions, count"
scalar MeshLAN.host[5].networkLayer.arp initiatedARPResolution:count 0
attr title "ARP initiated resolutions, count"
scalar MeshLAN.host[5].lo0.lo droppedPkBitError:count 0
attr interpolationmode none
attr source dropPkBitError
attr title "packets dropped/bit error, count"
scalar MeshLAN.host[5].lo0.lo droppedPkBitError:sum(packetBytes) 0
attr interpolationmode none
attr source dropPkBitError
attr title "packets dropped/bit error, sum(packetBytes)"
scalar MeshLAN.host[5].lo0.lo rcvdPkFromHL:count 6
attr interpolationmode none
attr source packetReceivedFromUpper
attr title "packets received from higher layer, count"
scalar MeshLAN.host[5].lo0.lo rcvdPkFromHL:sum(packetBytes) 4272
attr interpolationmode none
attr source packetReceivedFromUpper
attr title "packets received from higher layer, sum(packetBytes)"
scalar MeshLAN.host[5].lo0.lo passedUpPk:count 6
attr interpolationmode none
attr source packetSentToUpper
attr title "packets passed to higher layer, count"
scalar MeshLAN.host[5].lo0.lo passedUpPk:sum(packetBytes) 4272
attr interpolationmode none
attr source packetSentToUpper
attr title "packets passed to higher layer, sum(packetBytes)"
scalar MeshLAN.host[5].eth[0].queue.pauseQueue queueLength:max nan
attr interpolationmode sample-hold
attr title "queue length, max"
scalar MeshLAN.host[5].eth[0].queue.pauseQueue queueLength:timeavg nan
attr interpolationmode sample-hold
attr title "queue length, timeavg"
statistic MeshLAN.host[5].eth[0].queue.pauseQueue queueingTime:histogram
field count 0
field mean nan
field stddev nan
field min nan
field max nan
field sum 0
field sqrsum 0
attr interpolationmode none
attr title "queueing time, histogram"
bin	-inf	0
bin	-0.5	0
bin	-0.46666666666667	0
bin	-0.43333333333333	0
bin	-0.4	0
bin	-0.36666666666667	0
bin	-0.33333333333333	0
bin	-0.3	0
bin	-0.26666666666667	0
bin	-0.23333333333333	0
bin	-0.2	0
bin	-0.16666666666667	0
bin	-0.13333333333333	0
bin	-0.1	0
bin	-0.066666666666667	0
bin	-0.033333333333333	0
bin	0	0
bin	0.033333333333333	0
bin	0.066666666666667	0
bin	0.1	0
bin	0.13333333333333	0
bin	0.16666666666667	0
bin	0.2	0
bin	0.23333333333333	0
bin	0.26666666666667	0
bin	0.3	0
bin	0.33333333333333	0
bin	0.36666666666667	0
bin	0.4	0
bin	0.43333333333333	0
bin	0.46666666666667	0
bin	0.5	0
scalar MeshLAN.host[5].eth[0].queue.pauseQueue dropPk:count 0
attr interpolationmode none
attr source dropPkByQueue
attr title "dropped packets, count"
scalar MeshLAN.host[5].eth[0].queue.pauseQueue dropPk:sum(packetBytes) 0
attr interpolationmode none
attr source dropPkByQueue
attr title "dropped packets, sum(packetBytes)"
scalar MeshLAN.host[5].eth[0].queue.pauseQueue rcvdPk:count 0
attr interpolationmode none
attr title "received packets, count"
scalar MeshLAN.host[5].eth[0].queue.pauseQueue rcvdPk:sum(packetBytes) 0
attr interpolationmode none
attr title "received packets, sum(packetBytes)"
scalar MeshLAN.host[5].eth[0].queue.dataQueue queueLength:max 1
attr interpolationmode sample-hold
attr title "queue length, max"
scalar MeshLAN.host[5].eth[0].queue.dataQueue queueLength:timeavg 0
attr interpolationmode sample-hold
attr title "queue length, timeavg"
statistic MeshLAN.host[5].eth[0].queue.dataQueue queueingTime:histogram
field count 322
field mean 0
field stddev 0
field min 0
field max 0
field sum 0
field sqrsum 0
attr interpolationmode none
attr title "queueing time, histogram"
bin	-inf	0
bin	-0.5	0
bin	-0.46666666666667	0
bin	-0.43333333333333	0
bin	-0.4	0
bin	-0.36666666666667	0
bin	-0.33333333333333	0
bin	-0.3	0
bin	-0.26666666666667	0
bin	-0.23333333333333	0
bin	-0.2	0
bin	-0.16666666666667	0
bin	-0.13333333333333	0
bin	-0.1	0
bin	-0.066666666666667	0
bin	-0.033333333333333	0
bin	0	322
bin	0.033333333333333	0
bin	0.066666666666667	0
bin	0.1	0
bin	0.13333333333333	0
bin	0.16666666666667	0
bin	0.2	0
bin	0.23333333333333	0
bin	0.26666666666667	0
bin	0.3	0
bin	0.33333333333333	0
bin	0.36666666666667	0
bin	0.4	0
bin	0.43333333333333	0
bin	0.46666666666667	0
bin	0.5	0
scalar MeshLAN.host[5].eth[0].queue.dataQueue dropPk:count 0
attr interpolationmode none
attr source dropPkByQueue
attr title "dropped packets, count"
scalar MeshLAN.host[5].eth[0].queue.dataQueue dropPk:sum(packetBytes) 0
attr interpolationmode none
attr source dropPkByQueue
attr title "dropped packets, sum(packetBytes)"
scalar MeshLAN.host[5].eth[0].queue.dataQueue rcvdPk:count 322
attr interpolationmode none
attr title "received packets, count"
scalar MeshLAN.host[5].eth[0].queue.dataQueue rcvdPk:sum(packetBytes) 227110
attr interpolationmode none
attr title "received packets, sum(packetBytes)"
scalar MeshLAN.host[5].eth[0].mac "simulated time" 20
scalar MeshLAN.host[5].eth[0].mac full-duplex 1
scalar MeshLAN.host[5].eth[0].mac "frames/sec sent" 21.4
scalar MeshLAN.host[5].eth[0].mac "frames/sec rcvd" 21.4
scalar MeshLAN.host[5].eth[0].mac "bits/sec sent" 120630.4
scalar MeshLAN.host[5].eth[0].mac "bits/sec rcvd" 120630.4
scalar MeshLAN.host[5].eth[0].mac "rx channel idle (%)" 98.78
scalar MeshLAN.host[5].eth[0].mac "rx channel utilization (%)" 1.22
scalar MeshLAN.host[5].eth[0].mac rxPkFromHL:count 322
attr interpolationmode none
attr source rxPkFromHL
attr title "packet bytes from higher layer, count"
scalar MeshLAN.host[5].eth[0].mac rxPkFromHL:sum(packetBytes) 227110
attr interpolationmode none
attr source rxPkFromHL
attr title "packet bytes from higher layer, sum(packetBytes)"
scalar MeshLAN.host[5].eth[0].mac rxPausePkUnits:count 0
attr interpolationmode none
attr title "pause units received, count"
scalar MeshLAN.host[5].eth[0].mac rxPausePkUnits:sum 0
attr interpolationmode none
attr title "pause units received, sum"
scalar MeshLAN.host[5].eth[0].mac txPausePkUnits:count 0
attr interpolationmode none
attr title "pause units sent, count"
scalar MeshLAN.host[5].eth[0].mac txPausePkUnits:sum 0
attr interpolationmode none
attr title "pause units sent, sum"
scalar MeshLAN.host[5].eth[0].mac txPk:count 322
attr interpolationmode none
attr source txPk
attr title "packets transmitted, count"
scalar MeshLAN.host[5].eth[0].mac txPk:sum(packetBytes) 227110
attr interpolationmode none
attr source txPk
attr title "packets transmitted, sum(packetBytes)"
scalar MeshLAN.host[5].eth[0].mac droppedPkNotForUs:count 0
attr interpolationmode none
attr source dropPkNotForUs
attr title "packets dropped/not for us, count"
scalar MeshLAN.host[5].eth[0].mac droppedPkNotForUs:sum(packetBytes) 0
attr interpolationmode none
attr source dropPkNotForUs
attr title "packets dropped/not for us, sum(packetBytes)"
scalar MeshLAN.host[5].eth[0].mac droppedPkBitError:count 0
attr interpolationmode none
attr source dropPkBitError
attr title "packets dropped/bit error, count"
scalar MeshLAN.host[5].eth[0].mac droppedPkBitError:sum(packetBytes) 0
attr interpolationmode none
attr source dropPkBitError
attr title "packets dropped/bit error, sum(packetBytes)"
scalar MeshLAN.host[5].eth[0].mac droppedPkIfaceDown:count 0
attr interpolationmode none
attr source dropPkIfaceDown
attr title "packets dropped/interface down, count"
scalar MeshLAN.host[5].eth[0].mac droppedPkIfaceDown:sum(packetBytes) 0
attr interpolationmode none
attr source dropPkIfaceDown
attr title "packets dropped/interface down, sum(packetBytes)"
scalar MeshLAN.host[5].eth[0].mac rxPkOk:count 322
attr interpolationmode none
attr source rxPkOk
attr title "packets received OK, count"
scalar MeshLAN.host[5].eth[0].mac rxPkOk:sum(packetBytes) 227110
attr interpolationmode none
attr source rxPkOk
attr title "packets received OK, sum(packetBytes)"
scalar MeshLAN.host[5].eth[0].mac passedUpPk:count 322
attr interpolationmode none
attr source packetSentToUpper
attr title "packets passed to higher layer, count"
scalar MeshLAN.host[5].eth[0].mac passedUpPk:sum(packetBytes) 227110
attr interpolationmode none
attr source packetSentToUpper
attr title "packets passed to higher layer, sum(packetBytes)"
scalar MeshLAN.host[5].eth[0].encap pauseSent:count 0
attr title "pause sent, count"
scalar MeshLAN.host[5].eth[0].encap pauseSent:sum 0
attr title "pause sent, sum"
scalar MeshLAN.host[5].eth[0].encap decapPk:count 322
attr interpolationmode none
attr source decapPk
attr title "packets decapsulated, count"
scalar MeshLAN.host[5].eth[0].encap decapPk:sum(packetBytes) 221314
attr interpolationmode none
attr source decapPk
attr title "packets decapsulated, sum(packetBytes)"
scalar MeshLAN.host[5].eth[0].encap encapPk:count 322
attr interpolationmode none
attr source encapPk
attr title "packets encapsulated, count"
scalar MeshLAN.host[5].eth[0].encap encapPk:sum(packetBytes) 221314
attr interpolationmode none
attr source encapPk
attr title "packets encapsulated, sum(packetBytes)"
scalar MeshLAN.host[5].pingApp[0] "Pings sent" 387
scalar MeshLAN.host[5].pingApp[0] "ping loss rate (%)" 0
scalar MeshLAN.host[5].pingApp[0] "ping out-of-order rate (%)" 0
scalar MeshLAN.host[5].pingApp[0] pingRxSeq:count 290
attr interpolationmode none
attr title "ping rx seq, count"
scalar MeshLAN.host[5].pingApp[0] pingTxSeq:count 290
attr interpolationmode none
attr title "ping tx seq, count"
scalar MeshLAN.host[5].pingApp[0] numOutOfOrderArrivals:last nan
attr interpolationmode none
attr title "ping out-of-order arrivals, last"
scalar MeshLAN.host[5].pingApp[0] numLost:last nan
attr interpolationmode none
attr title "pings lost, last"
scalar MeshLAN.host[5].pingApp[0] rtt:mean 0.002362
attr interpolationmode none
attr title "ping round-trip time, mean"
attr unit s
scalar MeshLAN.host[6].networkLayer.arp sentReply:count 0
attr title "ARP replies sent, count"
scalar MeshLAN.host[6].networkLayer.arp sentReq:count 0
attr title "ARP request sent, count"
scalar MeshLAN.host[6].networkLayer.arp failedARPResolution:count 0
attr title "ARP failed resolutions, count"
scalar MeshLAN.host[6].networkLayer.arp completedARPResolution:count 0
attr title "ARP completed resolutions, count"
scalar MeshLAN.host[6].networkLayer.arp initiatedARPResolution:count 0
attr title "ARP initiated resolutions, count"
scalar MeshLAN.host[6].lo0.lo droppedPkBitError:count 0
attr interpolationmode none
attr source dropPkBitError
attr title "packets dropped/bit error, count"
scalar MeshLAN.host[6].lo0.lo droppedPkBitError:sum(packetBytes) 0
attr interpolationmode none
attr source dropPkBitError
attr title "packets dropped/bit error, sum(packetBytes)"
scalar MeshLAN.host[6].lo0.lo rcvdPkFromHL:count 6
attr interpolationmode none
attr source packetReceivedFromUpper
attr title "packets received from higher layer, count"
scalar MeshLAN.host[6].lo0.lo rcvdPkFromHL:sum(packetBytes) 1680
attr interpolationmode none
attr source packetReceivedFromUpper
attr title "packets received from higher layer, sum(packetBytes)"
scalar MeshLAN.host[6].lo0.lo passedUpPk:count 6
attr interpolationmode none
attr source packetSentToUpper
attr title "packets passed to higher layer, count"
scalar MeshLAN.host[6].lo0.lo passedUpPk:sum(packetBytes) 1680
attr interpolationmode none
attr source packetSentToUpper
attr title "packets passed to higher layer, sum(packetBytes)"
scalar MeshLAN.host[6].eth[0].queue.pauseQueue queueLength:max nan
attr interpolationmode sample-hold
attr title "queue length, max"
scalar MeshLAN.host[6].eth[0].queue.pauseQueue queueLength:timeavg nan
attr interpolationmode sample-hold
attr title "queue length, timeavg"
statistic MeshLAN.host[6].eth[0].queue.pauseQueue queueingTime:histogram
field count 0
field mean nan
field stddev nan
field min nan
field max nan
field sum 0
field sqrsum 0
attr interpolationmode none
attr title "queueing time, histogram"
bin	-inf	0
bin	-0.5	0
bin	-0.46666666666667	0
bin	-0.43333333333333	0
bin	-0.4	0
bin	-0.36666666666667	0
bin	-0.33333333333333	0
bin	-0.3	0
bin	-0.26666666666667	0
bin	-0.23333333333333	0
bin	-0.2	0
bin	-0.16666666666667	0
bin	-0.13333333333333	0
bin	-0.1	0
bin	-0.066666666666667	0
bin	-0.033333333333333	0
bin	0	0
bin	0.033333333333333	0
bin	0.066666666666667	0
bin	0.1	0
bin	0.13333333333333	0
bin	0.16666666666667	0
bin	0.2	0
bin	0.23333333333333	0
bin	0.26666666666667	0
bin	0.3	0
bin	0.33333333333333	0
bin	0.36666666666667	0
bin	0.4	0
bin	0.43333333333333	0
bin	0.46666666666667	0
bin	0.5	0
scalar MeshLAN.host[6].eth[0].queue.pauseQueue dropPk:count 0
attr interpolationmode none
attr source dropPkByQueue
attr title "dropped packets, count"
scalar MeshLAN.host[6].eth[0].queue.pauseQueue dropPk:sum(packetBytes) 0
attr interpolationmode none
attr source dropPkByQueue
attr title "dropped packets, sum(packetBytes)"
scalar MeshLAN.host[6].eth[0].queue.pauseQueue rcvdPk:count 0
attr interpolationmode none
attr title "received packets, count"
scalar MeshLAN.host[6].eth[0].queue.pauseQueue rcvdPk:sum(packetBytes) 0
attr interpolationmode none
attr title "received packets, sum(packetBytes)"
scalar MeshLAN.host[6].eth[0].queue.dataQueue queueLength:max 1
attr interpolationmode sample-hold
attr title "queue length, max"
scalar MeshLAN.host[6].eth[0].queue.dataQueue queueLength:timeavg 0
attr interpolationmode sample-hold
attr title "queue length, timeavg"
statistic MeshLAN.host[6].eth[0].queue.dataQueue queueingTime:histogram
field count 301
field mean 0
field stddev 0
field min 0
field max 0
field sum 0
field sqrsum 0
attr interpolationmode none
attr title "queueing time, histogram"
bin	-inf	0
bin	-0.5	0
bin	-0.46666666666667	0
bin	-0.43333333333333	0
bin	-0.4	0
bin	-0.36666666666667	0
bin	-0.33333333333333	0
bin	-0.3	0
bin	-0.26666666666667	0
bin	-0.23333333333333	0
bin	-0.2	0
bin	-0.16666666666667	0
bin	-0.13333333333333	0
bin	-0.1	0
bin	-0.066666666666667	0
bin	-0.033333333333333	0
bin	0	301
bin	0.033333333333333	0
bin	0.066666666666667	0
bin	0.1	0
bin	0.13333333333333	0
bin	0.16666666666667	0
bin	0.2	0
bin	0.23333333333333	0
bin	0.26666666666667	0
bin	0.3	0
bin	0.33333333333333	0
bin	0.36666666666667	0
bin	0.4	0
bin	0.43333333333333	0
bin	0.46666666666667	0
bin	0.5	0
scalar MeshLAN.host[6].eth[0].queue.dataQueue dropPk:count 0
attr interpolationmode none
attr source dropPkByQueue
attr title "dropped packets, count"
scalar MeshLAN.host[6].eth[0].queue.dataQueue dropPk:sum(packetBytes) 0
attr interpolationmode none
attr source dropPkByQueue
attr title "dropped packets, sum(packetBytes)"
scalar MeshLAN.host[6].eth[0].queue.dataQueue rcvdPk:count 301
attr interpolationmode none
attr title "received packets, count"
scalar MeshLAN.host[6].eth[0].queue.dataQueue rcvdPk:sum(packetBytes) 95130
attr interpolationmode none
attr title "received packets, sum(packetBytes)"
scalar MeshLAN.host[6].eth[0].mac "simulated time" 20
scalar MeshLAN.host[6].eth[0].mac full-duplex 1
scalar MeshLAN.host[6].eth[0].mac "frames/sec sent" 20.25
scalar MeshLAN.host[6].eth[0].mac "frames/sec rcvd" 20.25
scalar MeshLAN.host[6].eth[0].mac "bits/sec sent" 50840.8
scalar MeshLAN.host[6].eth[0].mac "bits/sec rcvd" 50840.8
scalar MeshLAN.host[6].eth[0].mac "rx channel idle (%)" 99.478632
scalar MeshLAN.host[6].eth[0].mac "rx channel utilization (%)" 0.521368
scalar MeshLAN.host[6].eth[0].mac rxPkFromHL:count 301
attr interpolationmode none
attr source rxPkFromHL
attr title "packet bytes from higher layer, count"
scalar MeshLAN.host[6].eth[0].mac rxPkFromHL:sum(packetBytes) 95130
attr interpolationmode none
attr source rxPkFromHL
attr title "packet bytes from higher layer, sum(packetBytes)"
scalar MeshLAN.host[6].eth[0].mac rxPausePkUnits:count 0
attr interpolationmode none
attr title "pause units received, count"
scalar MeshLAN.host[6].eth[0].mac rxPausePkUnits:sum 0
attr interpolationmode none
attr title "pause units received, sum"
scalar MeshLAN.host[6].eth[0].mac txPausePkUnits:count 0
attr interpolationmode none
attr title "pause units sent, count"
scalar MeshLAN.host[6].eth[0].mac txPausePkUnits:sum 0
attr interpolationmode none
attr title "pause units sent, sum"
scalar MeshLAN.host[6].eth[0].mac txPk:count 301
attr interpolationmode none
attr source txPk
attr title "packets transmitted, count"
scalar MeshLAN.host[6].eth[0].mac txPk:sum(packetBytes) 95130
attr interpolationmode none
attr source txPk
attr title "packets transmitted, sum(packetBytes)"
scalar MeshLAN.host[6].eth[0].mac droppedPkNotForUs:count 0
attr interpolationmode none
attr source dropPkNotForUs
attr title "packets dropped/not for us, count"
scalar MeshLAN.host[6].eth[0].mac droppedPkNotForUs:sum(packetBytes) 0
attr interpolationmode none
attr source dropPkNotForUs
attr title "packets dropped/not for us, sum(packetBytes)"
scalar MeshLAN.host[6].eth[0].mac droppedPkBitError:count 0
attr interpolationmode none
attr source dropPkBitError
attr title "packets dropped/bit error, count"
scalar MeshLAN.host[6].eth[0].mac droppedPkBitError:sum(packetBytes) 0
attr interpolationmode none
attr source dropPkBitError
attr title "packets dropped/bit error, sum(packetBytes)"
scalar MeshLAN.host[6].eth[0].mac droppedPkIfaceDown:count 0
attr interpolationmode none
attr source dropPkIfaceDown
attr title "packets dropped/interface down, count"
scalar MeshLAN.host[6].eth[0].mac droppedPkIfaceDown:sum(packetBytes) 0
attr interpolationmode none
attr source dropPkIfaceDown
attr title "packets dropped/interface down, sum(packetBytes)"
scalar MeshLAN.host[6].eth[0].mac rxPkOk:count 301
attr interpolationmode none
attr source rxPkOk
attr title "packets received OK, count"
scalar MeshLAN.host[6].eth[0].mac rxPkOk:sum(packetBytes) 95130
attr interpolationmode none
attr source rxPkOk
attr title "packets received OK, sum(packetBytes)"
scalar MeshLAN.host[6].eth[0].mac passedUpPk:count 301
attr interpolationmode none
attr source packetSentToUpper
attr title "packets passed to higher layer, count"
scalar MeshLAN.host[6].eth[0].mac passedUpPk:sum(packetBytes) 95130
attr interpolationmode none
attr source packetSentToUpper
attr title "packets passed to higher layer, sum(packetBytes)"
scalar MeshLAN.host[6].eth[0].encap pauseSent:count 0
attr title "pause sent, count"
scalar MeshLAN.host[6].eth[0].encap pauseSent:sum 0
attr title "pause sent, sum"
scalar MeshLAN.host[6].eth[0].encap decapPk:count 301
attr interpolationmode none
attr source decapPk
attr title "packets decapsulated, count"
scalar MeshLAN.host[6].eth[0].encap decapPk:sum(packetBytes) 89712
attr interpolationmode none
attr source decapPk
attr title "packets decapsulated, sum(packetBytes)"
scalar MeshLAN.host[6].eth[0].encap encapPk:count 301
attr interpolationmode none
attr source encapPk
attr title "packets encapsulated, count"
scalar MeshLAN.host[6].eth[0].encap encapPk:sum(packetBytes) 89712
attr interpolationmode none
attr source encapPk
attr title "packets encapsulated, sum(packetBytes)"
scalar MeshLAN.host[6].pingApp[0] "Pings sent" 378
scalar MeshLAN.host[6].pingApp[0] "ping loss rate (%)" 0
scalar MeshLAN.host[6].pingApp[0] "ping out-of-order rate (%)" 0
scalar MeshLAN.host[6].pingApp[0] pingRxSeq:count 282
attr interpolationmode none
attr title "ping rx seq, count"
scalar MeshLAN.host[6].pingApp[0] pingTxSeq:count 282
attr interpolationmode none
attr title "ping tx seq, count"
scalar MeshLAN.host[6].pingApp[0] numOutOfOrderArrivals:last nan
attr interpolationmode none
attr title "ping out-of-order arrivals, last"
scalar MeshLAN.host[6].pingApp[0] numLost:last nan
attr interpolationmode none
attr title "pings lost, last"
scalar MeshLAN.host[6].pingApp[0] rtt:mean 0.00098662222222222
attr interpolationmode none
attr title "ping round-trip time, mean"
attr unit s
scalar MeshLAN.host[7].networkLayer.arp sentReply:count 0
attr title "ARP replies sent, count"
scalar MeshLAN.host[7].networkLayer.arp sentReq:count 0
attr title "ARP request sent, count"
scalar MeshLAN.host[7].networkLayer.arp failedARPResolution:count 0
attr title "ARP failed resolutions, count"
scalar MeshLAN.host[7].networkLayer.arp completedARPResolution:count 0
attr title "ARP completed resolutions, count"
scalar MeshLAN.host[7].networkLayer.arp initiatedARPResolution:count 0
attr title "ARP initiated resolutions, count"
scalar MeshLAN.host[7].lo0.lo droppedPkBitError:count 0
attr interpolationmode none
attr source dropPkBitError
attr title "packets dropped/bit error, count"
scalar MeshLAN.host[7].lo0.lo droppedPkBitError:sum(packetBytes) 0
attr interpolationmode none
attr source dropPkBitError
attr title "packets dropped/bit error, sum(packetBytes)"
scalar MeshLAN.host[7].lo0.lo rcvdPkFromHL:count 6
attr interpolationmode none
attr source packetReceivedFromUpper
attr title "packets received from higher layer, count"
scalar MeshLAN.host[7].lo0.lo rcvdPkFromHL:sum(packetBytes) 2928
attr interpolationmode none
attr source packetReceivedFromUpper
attr title "packets received from higher layer, sum(packetBytes)"
scalar MeshLAN.host[7].lo0.lo passedUpPk:count 6
attr interpolationmode none
attr source packetSentToUpper
attr title "packets passed to higher layer, count"
scalar MeshLAN.host[7].lo0.lo passedUpPk:sum(packetBytes) 2928
attr interpolationmode none
attr source packetSentToUpper
attr title "packets passed to higher layer, sum(packetBytes)"
scalar MeshLAN.host[7].eth[0].queue.pauseQueue queueLength:max nan
attr interpolationmode sample-hold
attr title "queue length, max"
scalar MeshLAN.host[7].eth[0].queue.pauseQueue queueLength:timeavg nan
attr interpolationmode sample-hold
attr title "queue length, timeavg"
statistic MeshLAN.host[7].eth[0].queue.pauseQueue queueingTime:histogram
field count 0
field mean nan
field stddev nan
field min nan
field max nan
field sum 0
field sqrsum 0
attr interpolationmode none
attr title "queueing time, histogram"
bin	-inf	0
bin	-0.5	0
bin	-0.46666666666667	0
bin	-0.43333333333333	0
bin	-0.4	0
bin	-0.36666666666667	0
bin	-0.33333333333333	0
bin	-0.3	0
bin	-0.26666666666667	0
bin	-0.23333333333333	0
bin	-0.2	0
bin	-0.16666666666667	0
bin	-0.13333333333333	0
bin	-0.1	0
bin	-0.066666666666667	0
bin	-0.033333333333333	0
bin	0	0
bin	0.033333333333333	0
bin	0.066666666666667	0
bin	0.1	0
bin	0.13333333333333	0
bin	0.16666666666667	0
bin	0.2	0
bin	0.23333333333333	0
bin	0.26666666666667	0
bin	0.3	0
bin	0.33333333333333	0
bin	0.36666666666667	0
bin	0.4	0
bin	0.43333333333333	0
bin	0.46666666666667	0
bin	0.5	0
scalar MeshLAN.host[7].eth[0].queue.pauseQueue dropPk:count 0
attr interpolationmode none
attr source dropPkByQueue
attr title "dropped packets, count"
scalar MeshLAN.host[7].eth[0].queue.pauseQueue dropPk:sum(packetBytes) 0
attr interpolationmode none
attr source dropPkByQueue
attr title "dropped packets, sum(packetBytes)"
scalar MeshLAN.host[7].eth[0].queue.pauseQueue rcvdPk:count 0
attr interpolationmode none
attr title "received packets, count"
scalar MeshLAN.host[7].eth[0].queue.pauseQueue rcvdPk:sum(packetBytes) 0
attr interpolationmode none
attr title "received packets, sum(packetBytes)"
scalar MeshLAN.host[7].eth[0].queue.dataQueue queueLength:max 1
attr interpolationmode sample-hold
attr title "queue length, max"
scalar MeshLAN.host[7].eth[0].queue.dataQueue queueLength:timeavg 2.8069449102125e-005
attr interpolationmode sample-hold
attr title "queue length, timeavg"
statistic MeshLAN.host[7].eth[0].queue.dataQueue queueingTime:histogram
field count 321
field mean 1.3085842554517e-006
field stddev 2.3445214307205e-005
field min 0
field max 0.000420055546
field sum 0.000420055546
field sqrsum 1.7644666172536e-007
attr interpolationmode none
attr title "queueing time, histogram"
bin	-inf	0
bin	-0.000210027773	0
bin	-0.00018202406993333	0
bin	-0.00015402036686667	0
bin	-0.0001260166638	0
bin	-9.8012960733333e-005	0
bin	-7.0009257666667e-005	0
bin	-4.20055546e-005	0
bin	-1.4001851533333e-005	320
bin	1.4001851533333e-005	0
bin	4.20055546e-005	0
bin	7.0009257666667e-005	0
bin	9.8012960733333e-005	0
bin	0.0001260166638	0
bin	0.00015402036686667	0
bin	0.00018202406993333	0
bin	0.000210027773	0
bin	0.00023803147606667	0
bin	0.00026603517913333	0
bin	0.0002940388822	0
bin	0.00032204258526667	0
bin	0.00035004628833333	0
bin	0.0003780499914	0
bin	0.00040605369446667	1
bin	0.00043405739753333	0
bin	0.0004620611006	0
bin	0.00049006480366667	0
bin	0.00051806850673333	0
bin	0.0005460722098	0
bin	0.00057407591286667	0
bin	0.00060207961593333	0
bin	0.000630083319	0
scalar MeshLAN.host[7].eth[0].queue.dataQueue dropPk:count 0
attr interpolationmode none
attr source dropPkByQueue
attr title "dropped packets, count"
scalar MeshLAN.host[7].eth[0].queue.dataQueue dropPk:sum(packetBytes) 0
attr interpolationmode none
attr source dropPkByQueue
attr title "dropped packets, sum(packetBytes)"
scalar MeshLAN.host[7].eth[0].queue.dataQueue rcvdPk:count 321
attr interpolationmode none
attr title "received packets, count"
scalar MeshLAN.host[7].eth[0].queue.dataQueue rcvdPk:sum(packetBytes) 162813
attr interpolationmode none
attr title "received packets, sum(packetBytes)"
scalar MeshLAN.host[7].eth[0].mac "simulated time" 20
scalar MeshLAN.host[7].eth[0].mac full-duplex 1
scalar MeshLAN.host[7].eth[0].mac "frames/sec sent" 21.85
scalar MeshLAN.host[7].eth[0].mac "frames/sec rcvd" 21.85
scalar MeshLAN.host[7].eth[0].mac "bits/sec sent" 88580.4
scalar MeshLAN.host[7].eth[0].mac "bits/sec rcvd" 88580.4
scalar MeshLAN.host[7].eth[0].mac "rx channel idle (%)" 99.100212
scalar MeshLAN.host[7].eth[0].mac "rx channel utilization (%)" 0.899788
scalar MeshLAN.host[7].eth[0].mac rxPkFromHL:count 321
attr interpolationmode none
attr source rxPkFromHL
attr title "packet bytes from higher layer, count"
scalar MeshLAN.host[7].eth[0].mac rxPkFromHL:sum(packetBytes) 162813
attr interpolationmode none
attr source rxPkFromHL
attr title "packet bytes from higher layer, sum(packetBytes)"
scalar MeshLAN.host[7].eth[0].mac rxPausePkUnits:count 0
attr interpolationmode none
attr title "pause units received, count"
scalar MeshLAN.host[7].eth[0].mac rxPausePkUnits:sum 0
attr interpolationmode none
attr title "pause units received, sum"
scalar MeshLAN.host[7].eth[0].mac txPausePkUnits:count 0
attr interpolationmode none
attr title "pause units sent, count"
scalar MeshLAN.host[7].eth[0].mac txPausePkUnits:sum 0
attr interpolationmode none
attr title "pause units sent, sum"
scalar MeshLAN.host[7].eth[0].mac txPk:count 321
attr interpolationmode none
attr source txPk
attr title "packets transmitted, count"
scalar MeshLAN.host[7].eth[0].mac txPk:sum(packetBytes) 162813
attr interpolationmode none
attr source txPk
attr title "packets transmitted, sum(packetBytes)"
scalar MeshLAN.host[7].eth[0].mac droppedPkNotForUs:count 0
attr interpolationmode none
attr source dropPkNotForUs
attr title "packets dropped/not for us, count"
scalar MeshLAN.host[7].eth[0].mac droppedPkNotForUs:sum(packetBytes) 0
attr interpolationmode none
attr source dropPkNotForUs
attr title "packets dropped/not for us, sum(packetBytes)"
scalar MeshLAN.host[7].eth[0].mac droppedPkBitError:count 0
attr interpolationmode none
attr source dropPkBitError
attr title "packets dropped/bit error, count"
scalar MeshLAN.host[7].eth[0].mac droppedPkBitError:sum(packetBytes) 0
attr interpolationmode none
attr source dropPkBitError
attr title "packets dropped/bit error, sum(packetBytes)"
scalar MeshLAN.host[7].eth[0].mac droppedPkIfaceDown:count 0
attr interpolationmode none
attr source dropPkIfaceDown
attr title "packets dropped/interface down, count"
scalar MeshLAN.host[7].eth[0].mac droppedPkIfaceDown:sum(packetBytes) 0
attr interpolationmode none
attr source dropPkIfaceDown
attr title "packets dropped/interface down, sum(packetBytes)"
scalar MeshLAN.host[7].eth[0].mac rxPkOk:count 321
attr interpolationmode none
attr source rxPkOk
attr title "packets received OK, count"
scalar MeshLAN.host[7].eth[0].mac rxPkOk:sum(packetBytes) 162813
attr interpolationmode none
attr source rxPkOk
attr title "packets received OK, sum(packetBytes)"
scalar MeshLAN.host[7].eth[0].mac passedUpPk:count 321
attr interpolationmode none
attr source packetSentToUpper
attr title "packets passed to higher layer, count"
scalar MeshLAN.host[7].eth[0].mac passedUpPk:sum(packetBytes) 162813
attr interpolationmode none
attr source packetSentToUpper
attr title "packets passed to higher layer, sum(packetBytes)"
scalar MeshLAN.host[7].eth[0].encap pauseSent:count 0
attr title "pause sent, count"
scalar MeshLAN.host[7].eth[0].encap pauseSent:sum 0
attr title "pause sent, sum"
scalar MeshLAN.host[7].eth[0].encap decapPk:count 321
attr interpolationmode none
attr source decapPk
attr title "packets decapsulated, count"
scalar MeshLAN.host[7].eth[0].encap decapPk:sum(packetBytes) 157035
attr interpolationmode none
attr source decapPk
attr title "packets decapsulated, sum(packetBytes)"
scalar MeshLAN.host[7].eth[0].encap encapPk:count 321
attr interpolationmode none
attr source encapPk
attr title "packets encapsulated, count"
scalar MeshLAN.host[7].eth[0].encap encapPk:sum(packetBytes) 157035
attr interpolationmode none
attr source encapPk
attr title "packets encapsulated, sum(packetBytes)"
scalar MeshLAN.host[7].pingApp[0] "Pings sent" 406
scalar MeshLAN.host[7].pingApp[0] "ping loss rate (%)" 0
scalar MeshLAN.host[7].pingApp[0] "ping out-of-order rate (%)" 0
scalar MeshLAN.host[7].pingApp[0] pingRxSeq:count 299
attr interpolationmode none
attr title "ping rx seq, count"
scalar MeshLAN.host[7].pingApp[0] pingTxSeq:count 299
attr interpolationmode none
attr title "ping tx seq, count"
[...]
attr title "dropped packets, count"
scalar MeshLAN.router[9].eth[7].queue.dataQueue dropPk:sum(packetBytes) 0
attr interpolationmode none
attr source dropPkByQueue
attr title "dropped packets, sum(packetBytes)"
scalar MeshLAN.router[9].eth[7].queue.dataQueue rcvdPk:count 56
attr interpolationmode none
attr title "received packets, count"
scalar MeshLAN.router[9].eth[7].queue.dataQueue rcvdPk:sum(packetBytes) 32406
attr interpolationmode none
attr title "received packets, sum(packetBytes)"
scalar MeshLAN.router[9].eth[7].mac "simulated time" 20
scalar MeshLAN.router[9].eth[7].mac full-duplex 1
scalar MeshLAN.router[9].eth[7].mac "frames/sec sent" 3.85
scalar MeshLAN.router[9].eth[7].mac "frames/sec rcvd" 3.85
scalar MeshLAN.router[9].eth[7].mac "bits/sec sent" 17973.6
scalar MeshLAN.router[9].eth[7].mac "bits/sec rcvd" 17973.6
scalar MeshLAN.router[9].eth[7].mac "rx channel idle (%)" 99.8178
scalar MeshLAN.router[9].eth[7].mac "rx channel utilization (%)" 0.1822
scalar MeshLAN.router[9].eth[7].mac rxPkFromHL:count 56
attr interpolationmode none
attr source rxPkFromHL
attr title "packet bytes from higher layer, count"
scalar MeshLAN.router[9].eth[7].mac rxPkFromHL:sum(packetBytes) 32406
attr interpolationmode none
attr source rxPkFromHL
attr title "packet bytes from higher layer, sum(packetBytes)"
scalar MeshLAN.router[9].eth[7].mac rxPausePkUnits:count 0
attr interpolationmode none
attr title "pause units received, count"
scalar MeshLAN.router[9].eth[7].mac rxPausePkUnits:sum 0
attr interpolationmode none
attr title "pause units received, sum"
scalar MeshLAN.router[9].eth[7].mac txPausePkUnits:count 0
attr interpolationmode none
attr title "pause units sent, count"
scalar MeshLAN.router[9].eth[7].mac txPausePkUnits:sum 0
attr interpolationmode none
attr title "pause units sent, sum"
scalar MeshLAN.router[9].eth[7].mac txPk:count 56
attr interpolationmode none
attr source txPk
attr title "packets transmitted, count"
scalar MeshLAN.router[9].eth[7].mac txPk:sum(packetBytes) 32406
attr interpolationmode none
attr source txPk
attr title "packets transmitted, sum(packetBytes)"
scalar MeshLAN.router[9].eth[7].mac droppedPkNotForUs:count 0
attr interpolationmode none
attr source dropPkNotForUs
attr title "packets dropped/not for us, count"
scalar MeshLAN.router[9].eth[7].mac droppedPkNotForUs:sum(packetBytes) 0
attr interpolationmode none
attr source dropPkNotForUs
attr title "packets dropped/not for us, sum(packetBytes)"
scalar MeshLAN.router[9].eth[7].mac droppedPkBitError:count 0
attr interpolationmode none
attr source dropPkBitError
attr title "packets dropped/bit error, count"
scalar MeshLAN.router[9].eth[7].mac droppedPkBitError:sum(packetBytes) 0
attr interpolationmode none
attr source dropPkBitError
attr title "packets dropped/bit error, sum(packetBytes)"
scalar MeshLAN.router[9].eth[7].mac droppedPkIfaceDown:count 0
attr interpolationmode none
attr source dropPkIfaceDown
attr title "packets dropped/interface down, count"
scalar MeshLAN.router[9].eth[7].mac droppedPkIfaceDown:sum(packetBytes) 0
attr interpolationmode none
attr source dropPkIfaceDown
attr title "packets dropped/interface down, sum(packetBytes)"
scalar MeshLAN.router[9].eth[7].mac rxPkOk:count 56
attr interpolationmode none
attr source rxPkOk
attr title "packets received OK, count"
scalar MeshLAN.router[9].eth[7].mac rxPkOk:sum(packetBytes) 32406
attr interpolationmode none
attr source rxPkOk
attr title "packets received OK, sum(packetBytes)"
scalar MeshLAN.router[9].eth[7].mac passedUpPk:count 56
attr interpolationmode none
attr source packetSentToUpper
attr title "packets passed to higher layer, count"
scalar MeshLAN.router[9].eth[7].mac passedUpPk:sum(packetBytes) 32406
attr interpolationmode none
attr source packetSentToUpper
attr title "packets passed to higher layer, sum(packetBytes)"
scalar MeshLAN.router[9].eth[7].encap pauseSent:count 0
attr title "pause sent, count"
scalar MeshLAN.router[9].eth[7].encap pauseSent:sum 0
attr title "pause sent, sum"
scalar MeshLAN.router[9].eth[7].encap decapPk:count 56
attr interpolationmode none
attr source decapPk
attr title "packets decapsulated, count"
scalar MeshLAN.router[9].eth[7].encap decapPk:sum(packetBytes) 31398
attr interpolationmode none
attr source decapPk
attr title "packets decapsulated, sum(packetBytes)"
scalar MeshLAN.router[9].eth[7].encap encapPk:count 56
attr interpolationmode none
attr source encapPk
attr title "packets encapsulated, count"
scalar MeshLAN.router[9].eth[7].encap encapPk:sum(packetBytes) 31398
attr interpolationmode none
attr source encapPk
attr title "packets encapsulated, sum(packetBytes)"
scalar MeshLAN.router[9].eth[8].queue.pauseQueue queueLength:max nan
attr interpolationmode sample-hold
attr title "queue length, max"
scalar MeshLAN.router[9].eth[8].queue.pauseQueue queueLength:timeavg nan
attr interpolationmode sample-hold
attr title "queue length, timeavg"
statistic MeshLAN.router[9].eth[8].queue.pauseQueue queueingTime:histogram
field count 0
field mean nan
field stddev nan
field min nan
field max nan
field sum 0
field sqrsum 0
attr interpolationmode none
attr title "queueing time, histogram"
bin	-inf	0
bin	-0.5	0
bin	-0.46666666666667	0
bin	-0.43333333333333	0
bin	-0.4	0
bin	-0.36666666666667	0
bin	-0.33333333333333	0
bin	-0.3	0
bin	-0.26666666666667	0
bin	-0.23333333333333	0
bin	-0.2	0
bin	-0.16666666666667	0
bin	-0.13333333333333	0
bin	-0.1	0
bin	-0.066666666666667	0
bin	-0.033333333333333	0
bin	0	0
bin	0.033333333333333	0
bin	0.066666666666667	0
bin	0.1	0
bin	0.13333333333333	0
bin	0.16666666666667	0
bin	0.2	0
bin	0.23333333333333	0
bin	0.26666666666667	0
bin	0.3	0
bin	0.33333333333333	0
bin	0.36666666666667	0
bin	0.4	0
bin	0.43333333333333	0
bin	0.46666666666667	0
bin	0.5	0
scalar MeshLAN.router[9].eth[8].queue.pauseQueue dropPk:count 0
attr interpolationmode none
attr source dropPkByQueue
attr title "dropped packets, count"
scalar MeshLAN.router[9].eth[8].queue.pauseQueue dropPk:sum(packetBytes) 0
attr interpolationmode none
attr source dropPkByQueue
attr title "dropped packets, sum(packetBytes)"
scalar MeshLAN.router[9].eth[8].queue.pauseQueue rcvdPk:count 0
attr interpolationmode none
attr title "received packets, count"
scalar MeshLAN.router[9].eth[8].queue.pauseQueue rcvdPk:sum(packetBytes) 0
attr interpolationmode none
attr title "received packets, sum(packetBytes)"
scalar MeshLAN.router[9].eth[8].queue.dataQueue queueLength:max 1
attr interpolationmode sample-hold
attr title "queue length, max"
scalar MeshLAN.router[9].eth[8].queue.dataQueue queueLength:timeavg 1.7950776827958e-005
attr interpolationmode sample-hold
attr title "queue length, timeavg"
statistic MeshLAN.router[9].eth[8].queue.dataQueue queueingTime:histogram
field count 58
field mean 4.6068965517241e-006
field stddev 3.5085078860118e-005
field min 0
field max 0.0002672
field sum 0.0002672
field sqrsum 7.139584e-008
attr interpolationmode none
attr title "queueing time, histogram"
bin	-inf	0
bin	-0.0001336	0
bin	-0.00011578666666667	0
bin	-9.7973333333333e-005	0
bin	-8.016e-005	0
bin	-6.2346666666667e-005	0
bin	-4.4533333333333e-005	0
bin	-2.672e-005	0
bin	-8.9066666666667e-006	57
bin	8.9066666666667e-006	0
bin	2.672e-005	0
bin	4.4533333333333e-005	0
bin	6.2346666666667e-005	0
bin	8.016e-005	0
bin	9.7973333333333e-005	0
bin	0.00011578666666667	0
bin	0.0001336	0
bin	0.00015141333333333	0
bin	0.00016922666666667	0
bin	0.00018704	0
bin	0.00020485333333333	0
bin	0.00022266666666667	0
bin	0.00024048	0
bin	0.00025829333333333	1
bin	0.00027610666666667	0
bin	0.00029392	0
bin	0.00031173333333333	0
bin	0.00032954666666667	0
bin	0.00034736	0
bin	0.00036517333333333	0
bin	0.00038298666666667	0
bin	0.0004008	0
scalar MeshLAN.router[9].eth[8].queue.dataQueue dropPk:count 0
attr interpolationmode none
attr source dropPkByQueue
attr title "dropped packets, count"
scalar MeshLAN.router[9].eth[8].queue.dataQueue dropPk:sum(packetBytes) 0
attr interpolationmode none
attr source dropPkByQueue
attr title "dropped packets, sum(packetBytes)"
scalar MeshLAN.router[9].eth[8].queue.dataQueue rcvdPk:count 58
attr interpolationmode none
attr title "received packets, count"
scalar MeshLAN.router[9].eth[8].queue.dataQueue rcvdPk:sum(packetBytes) 39368
attr interpolationmode none
attr title "received packets, sum(packetBytes)"
scalar MeshLAN.router[9].eth[8].mac "simulated time" 20
scalar MeshLAN.router[9].eth[8].mac full-duplex 1
scalar MeshLAN.router[9].eth[8].mac "frames/sec sent" 4
scalar MeshLAN.router[9].eth[8].mac "frames/sec rcvd" 4
scalar MeshLAN.router[9].eth[8].mac "bits/sec sent" 21492.8
scalar MeshLAN.router[9].eth[8].mac "bits/sec rcvd" 21492.8
scalar MeshLAN.router[9].eth[8].mac "rx channel idle (%)" 99.782512
scalar MeshLAN.router[9].eth[8].mac "rx channel utilization (%)" 0.217488
scalar MeshLAN.router[9].eth[8].mac rxPkFromHL:count 58
attr interpolationmode none
attr source rxPkFromHL
attr title "packet bytes from higher layer, count"
scalar MeshLAN.router[9].eth[8].mac rxPkFromHL:sum(packetBytes) 39368
attr interpolationmode none
attr source rxPkFromHL
attr title "packet bytes from higher layer, sum(packetBytes)"
scalar MeshLAN.router[9].eth[8].mac rxPausePkUnits:count 0
attr interpolationmode none
attr title "pause units received, count"
scalar MeshLAN.router[9].eth[8].mac rxPausePkUnits:sum 0
attr interpolationmode none
attr title "pause units received, sum"
scalar MeshLAN.router[9].eth[8].mac txPausePkUnits:count 0
attr interpolationmode none
attr title "pause units sent, count"
scalar MeshLAN.router[9].eth[8].mac txPausePkUnits:sum 0
attr interpolationmode none
attr title "pause units sent, sum"
scalar MeshLAN.router[9].eth[8].mac txPk:count 58
attr interpolationmode none
attr source txPk
attr title "packets transmitted, count"
scalar MeshLAN.router[9].eth[8].mac txPk:sum(packetBytes) 39368
attr interpolationmode none
attr source txPk
attr title "packets transmitted, sum(packetBytes)"
scalar MeshLAN.router[9].eth[8].mac droppedPkNotForUs:count 0
attr interpolationmode none
attr source dropPkNotForUs
attr title "packets dropped/not for us, count"
scalar MeshLAN.router[9].eth[8].mac droppedPkNotForUs:sum(packetBytes) 0
attr interpolationmode none
attr source dropPkNotForUs
attr title "packets dropped/not for us, sum(packetBytes)"
scalar MeshLAN.router[9].eth[8].mac droppedPkBitError:count 0
attr interpolationmode none
attr source dropPkBitError
attr title "packets dropped/bit error, count"
scalar MeshLAN.router[9].eth[8].mac droppedPkBitError:sum(packetBytes) 0
attr interpolationmode none
attr source dropPkBitError
attr title "packets dropped/bit error, sum(packetBytes)"
scalar MeshLAN.router[9].eth[8].mac droppedPkIfaceDown:count 0
attr interpolationmode none
attr source dropPkIfaceDown
attr title "packets dropped/interface down, count"
scalar MeshLAN.router[9].eth[8].mac droppedPkIfaceDown:sum(packetBytes) 0
attr interpolationmode none
attr source dropPkIfaceDown
attr title "packets dropped/interface down, sum(packetBytes)"
scalar MeshLAN.router[9].eth[8].mac rxPkOk:count 58
attr interpolationmode none
attr source rxPkOk
attr title "packets received OK, count"
scalar MeshLAN.router[9].eth[8].mac rxPkOk:sum(packetBytes) 39368
attr interpolationmode none
attr source rxPkOk
attr title "packets received OK, sum(packetBytes)"
scalar MeshLAN.router[9].eth[8].mac passedUpPk:count 58
attr interpolationmode none
attr source packetSentToUpper
attr title "packets passed to higher layer, count"
scalar MeshLAN.router[9].eth[8].mac passedUpPk:sum(packetBytes) 39368
attr interpolationmode none
attr source packetSentToUpper
attr title "packets passed to higher layer, sum(packetBytes)"
scalar MeshLAN.router[9].eth[8].encap pauseSent:count 0
attr title "pause sent, count"
scalar MeshLAN.router[9].eth[8].encap pauseSent:sum 0
attr title "pause sent, sum"
scalar MeshLAN.router[9].eth[8].encap decapPk:count 58
attr interpolationmode none
attr source decapPk
attr title "packets decapsulated, count"
scalar MeshLAN.router[9].eth[8].encap decapPk:sum(packetBytes) 38324
attr interpolationmode none
attr source decapPk
attr title "packets decapsulated, sum(packetBytes)"
scalar MeshLAN.router[9].eth[8].encap encapPk:count 58
attr interpolationmode none
attr source encapPk
attr title "packets encapsulated, count"
scalar MeshLAN.router[9].eth[8].encap encapPk:sum(packetBytes) 38324
attr interpolationmode none
attr source encapPk
attr title "packets encapsulated, sum(packetBytes)"
scalar MeshLAN.router[9].eth[9].queue.pauseQueue queueLength:max nan
attr interpolationmode sample-hold
attr title "queue length, max"
scalar MeshLAN.router[9].eth[9].queue.pauseQueue queueLength:timeavg nan
attr interpolationmode sample-hold
attr title "queue length, timeavg"
statistic MeshLAN.router[9].eth[9].queue.pauseQueue queueingTime:histogram
field count 0
field mean nan
field stddev nan
field min nan
field max nan
field sum 0
field sqrsum 0
attr interpolationmode none
attr title "queueing time, histogram"
bin	-inf	0
bin	-0.5	0
bin	-0.46666666666667	0
bin	-0.43333333333333	0
bin	-0.4	0
bin	-0.36666666666667	0
bin	-0.33333333333333	0
bin	-0.3	0
bin	-0.26666666666667	0
bin	-0.23333333333333	0
bin	-0.2	0
bin	-0.16666666666667	0
bin	-0.13333333333333	0
bin	-0.1	0
bin	-0.066666666666667	0
bin	-0.033333333333333	0
bin	0	0
bin	0.033333333333333	0
bin	0.066666666666667	0
bin	0.1	0
bin	0.13333333333333	0
bin	0.16666666666667	0
bin	0.2	0
bin	0.23333333333333	0
bin	0.26666666666667	0
bin	0.3	0
bin	0.33333333333333	0
bin	0.36666666666667	0
bin	0.4	0
bin	0.43333333333333	0
bin	0.46666666666667	0
bin	0.5	0
scalar MeshLAN.router[9].eth[9].queue.pauseQueue dropPk:count 0
attr interpolationmode none
attr source dropPkByQueue
attr title "dropped packets, count"
scalar MeshLAN.router[9].eth[9].queue.pauseQueue dropPk:sum(packetBytes) 0
attr interpolationmode none
attr source dropPkByQueue
attr title "dropped packets, sum(packetBytes)"
scalar MeshLAN.router[9].eth[9].queue.pauseQueue rcvdPk:count 0
attr interpolationmode none
attr title "received packets, count"
scalar MeshLAN.router[9].eth[9].queue.pauseQueue rcvdPk:sum(packetBytes) 0
attr interpolationmode none
attr title "received packets, sum(packetBytes)"
scalar MeshLAN.router[9].eth[9].queue.dataQueue queueLength:max 1
attr interpolationmode sample-hold
attr title "queue length, max"
scalar MeshLAN.router[9].eth[9].queue.dataQueue queueLength:timeavg 0
attr interpolationmode sample-hold
attr title "queue length, timeavg"
statistic MeshLAN.router[9].eth[9].queue.dataQueue queueingTime:histogram
field count 45
field mean 0
field stddev 0
field min 0
field max 0
field sum 0
field sqrsum 0
attr interpolationmode none
attr title "queueing time, histogram"
bin	-inf	0
bin	-0.5	0
bin	-0.46666666666667	0
bin	-0.43333333333333	0
bin	-0.4	0
bin	-0.36666666666667	0
bin	-0.33333333333333	0
bin	-0.3	0
bin	-0.26666666666667	0
bin	-0.23333333333333	0
bin	-0.2	0
bin	-0.16666666666667	0
bin	-0.13333333333333	0
bin	-0.1	0
bin	-0.066666666666667	0
bin	-0.033333333333333	0
bin	0	45
bin	0.033333333333333	0
bin	0.066666666666667	0
bin	0.1	0
bin	0.13333333333333	0
bin	0.16666666666667	0
bin	0.2	0
bin	0.23333333333333	0
bin	0.26666666666667	0
bin	0.3	0
bin	0.33333333333333	0
bin	0.36666666666667	0
bin	0.4	0
bin	0.43333333333333	0
bin	0.46666666666667	0
bin	0.5	0
scalar MeshLAN.router[9].eth[9].queue.dataQueue dropPk:count 0
attr interpolationmode none
attr source dropPkByQueue
attr title "dropped packets, count"
scalar MeshLAN.router[9].eth[9].queue.dataQueue dropPk:sum(packetBytes) 0
attr interpolationmode none
attr source dropPkByQueue
attr title "dropped packets, sum(packetBytes)"
scalar MeshLAN.router[9].eth[9].queue.dataQueue rcvdPk:count 45
attr interpolationmode none
attr title "received packets, count"
scalar MeshLAN.router[9].eth[9].queue.dataQueue rcvdPk:sum(packetBytes) 30804
attr interpolationmode none
attr title "received packets, sum(packetBytes)"
scalar MeshLAN.router[9].eth[9].mac "simulated time" 20
scalar MeshLAN.router[9].eth[9].mac full-duplex 1
scalar MeshLAN.router[9].eth[9].mac "frames/sec sent" 3.2
scalar MeshLAN.router[9].eth[9].mac "frames/sec rcvd" 3.2
scalar MeshLAN.router[9].eth[9].mac "bits/sec sent" 17759.2
scalar MeshLAN.router[9].eth[9].mac "bits/sec rcvd" 17759.2
scalar MeshLAN.router[9].eth[9].mac "rx channel idle (%)" 99.82036
scalar MeshLAN.router[9].eth[9].mac "rx channel utilization (%)" 0.17964
scalar MeshLAN.router[9].eth[9].mac rxPkFromHL:count 45
attr interpolationmode none
attr source rxPkFromHL
attr title "packet bytes from higher layer, count"
scalar MeshLAN.router[9].eth[9].mac rxPkFromHL:sum(packetBytes) 30804
attr interpolationmode none
attr source rxPkFromHL
attr title "packet bytes from higher layer, sum(packetBytes)"
scalar MeshLAN.router[9].eth[9].mac rxPausePkUnits:count 0
attr interpolationmode none
attr title "pause units received, count"
scalar MeshLAN.router[9].eth[9].mac rxPausePkUnits:sum 0
attr interpolationmode none
attr title "pause units received, sum"
scalar MeshLAN.router[9].eth[9].mac txPausePkUnits:count 0
attr interpolationmode none
attr title "pause units sent, count"
scalar MeshLAN.router[9].eth[9].mac txPausePkUnits:sum 0
attr interpolationmode none
attr title "pause units sent, sum"
scalar MeshLAN.router[9].eth[9].mac txPk:count 45
attr interpolationmode none
attr source txPk
attr title "packets transmitted, count"
scalar MeshLAN.router[9].eth[9].mac txPk:sum(packetBytes) 30804
attr interpolationmode none
attr source txPk
attr title "packets transmitted, sum(packetBytes)"
scalar MeshLAN.router[9].eth[9].mac droppedPkNotForUs:count 0
attr interpolationmode none
attr source dropPkNotForUs
attr title "packets dropped/not for us, count"
scalar MeshLAN.router[9].eth[9].mac droppedPkNotForUs:sum(packetBytes) 0
attr interpolationmode none
attr source dropPkNotForUs
attr title "packets dropped/not for us, sum(packetBytes)"
scalar MeshLAN.router[9].eth[9].mac droppedPkBitError:count 0
attr interpolationmode none
attr source dropPkBitError
attr title "packets dropped/bit error, count"
scalar MeshLAN.router[9].eth[9].mac droppedPkBitError:sum(packetBytes) 0
attr interpolationmode none
attr source dropPkBitError
attr title "packets dropped/bit error, sum(packetBytes)"
scalar MeshLAN.router[9].eth[9].mac droppedPkIfaceDown:count 0
attr interpolationmode none
attr source dropPkIfaceDown
attr title "packets dropped/interface down, count"
scalar MeshLAN.router[9].eth[9].mac droppedPkIfaceDown:sum(packetBytes) 0
attr interpolationmode none
attr source dropPkIfaceDown
attr title "packets dropped/interface down, sum(packetBytes)"
scalar MeshLAN.router[9].eth[9].mac rxPkOk:count 45
attr interpolationmode none
attr source rxPkOk
attr title "packets received OK, count"
scalar MeshLAN.router[9].eth[9].mac rxPkOk:sum(packetBytes) 30804
attr interpolationmode none
attr source rxPkOk
attr title "packets received OK, sum(packetBytes)"
scalar MeshLAN.router[9].eth[9].mac passedUpPk:count 45
attr interpolationmode none
attr source packetSentToUpper
attr title "packets passed to higher layer, count"
scalar MeshLAN.router[9].eth[9].mac passedUpPk:sum(packetBytes) 30804
attr interpolationmode none
attr source packetSentToUpper
attr title "packets passed to higher layer, sum(packetBytes)"
scalar MeshLAN.router[9].eth[9].encap pauseSent:count 0
attr title "pause sent, count"
scalar MeshLAN.router[9].eth[9].encap pauseSent:sum 0
attr title "pause sent, sum"
scalar MeshLAN.router[9].eth[9].encap decapPk:count 45
attr interpolationmode none
attr source decapPk
attr title "packets decapsulated, count"
scalar MeshLAN.router[9].eth[9].encap decapPk:sum(packetBytes) 29994
attr interpolationmode none
attr source decapPk
attr title "packets decapsulated, sum(packetBytes)"
scalar MeshLAN.router[9].eth[9].encap encapPk:count 45
attr interpolationmode none
attr source encapPk
attr title "packets encapsulated, count"
scalar MeshLAN.router[9].eth[9].encap encapPk:sum(packetBytes) 29994
attr interpolationmode none
attr source encapPk
attr title "packets encapsulated, sum(packetBytes)"

