version 2
run MeshLAN10-sendinterval-1-20180110-21:42:24-1416
attr configname MeshLAN10-sendinterval
attr datetime 20180110-21:42:24
attr experiment MeshLAN10-sendinterval
attr inifile MeshLAN.ini
attr iterationvars $pa=28
attr iterationvarsf pa=28-
attr measurement $pa=28
attr network MeshLAN
attr processid 1416
attr repetition 0
attr replication #0
attr resultdir results
attr runnumber 1
attr seedset 1
itervar pa 28
param *.numHosts 10
param **.datarate 10Mbps
param **.host[*].pingApp[*].sendInterval "truncnormal(100ms, 50ms)"
param **.host[*].pingApp[*].packetSize "truncnormal(1024B, 512B)"
param **.queueType "\"DropTailQueue\""
param **.frameCapacity 10
param **.mtu 1024B
param **.host[*].numPingApps 28
param **.host[*].pingApp[*].typename "\"PingApp\""
param **.host[*].pingApp[*].count 1
param **.host[*].pingApp[*].startTime "truncnormal(200ms, 100ms)"
param **.host[*].pingApp[*].destAddr "\"*\""

scalar MeshLAN.host[0].networkLayer.arp sentReply:count 0
attr title "ARP replies sent, count"
scalar MeshLAN.host[0].networkLayer.arp sentReq:count 0
attr title "ARP request sent, count"
scalar MeshLAN.host[0].networkLayer.arp failedARPResolution:count 0
attr title "ARP failed resolutions, count"
scalar MeshLAN.host[0].networkLayer.arp completedARPResolution:count 0
attr title "ARP completed resolutions, count"
scalar MeshLAN.host[0].networkLayer.arp initiatedARPResolution:count 0
attr title "ARP initiated resolutions, count"
scalar MeshLAN.host[0].lo0.lo droppedPkBitError:count 0
attr interpolationmode none
attr source dropPkBitError
attr title "packets dropped/bit error, count"
scalar MeshLAN.host[0].lo0.lo droppedPkBitError:sum(packetBytes) 0
attr interpolationmode none
attr source dropPkBitError
attr title "packets dropped/bit error, sum(packetBytes)"
scalar MeshLAN.host[0].lo0.lo rcvdPkFromHL:count 120
attr interpolationmode none
attr source packetReceivedFromUpper
attr title "packets received from higher layer, count"
scalar MeshLAN.host[0].lo0.lo rcvdPkFromHL:sum(packetBytes) 85500
attr interpolationmode none
attr source packetReceivedFromUpper
attr title "packets received from higher layer, sum(packetBytes)"
scalar MeshLAN.host[0].lo0.lo passedUpPk:count 120
attr interpolationmode none
attr source packetSentToUpper
attr title "packets passed to higher layer, count"
scalar MeshLAN.host[0].lo0.lo passedUpPk:sum(packetBytes) 85500
attr interpolationmode none
attr source packetSentToUpper
attr title "packets passed to higher layer, sum(packetBytes)"
scalar MeshLAN.host[0].eth[0].queue.pauseQueue queueLength:max nan
attr interpolationmode sample-hold
attr title "queue length, max"
scalar MeshLAN.host[0].eth[0].queue.pauseQueue queueLength:timeavg nan
attr interpolationmode sample-hold
attr title "queue length, timeavg"
statistic MeshLAN.host[0].eth[0].queue.pauseQueue queueingTime:histogram
field count 0
field mean nan
field stddev nan
field min nan
field max nan
field sum 0
field sqrsum 0
attr interpolationmode none
attr title "queueing time, histogram"
bin	-inf	0
bin	-0.5	0
bin	-0.46666666666667	0
bin	-0.43333333333333	0
bin	-0.4	0
bin	-0.36666666666667	0
bin	-0.33333333333333	0
bin	-0.3	0
bin	-0.26666666666667	0
bin	-0.23333333333333	0
bin	-0.2	0
bin	-0.16666666666667	0
bin	-0.13333333333333	0
bin	-0.1	0
bin	-0.066666666666667	0
bin	-0.033333333333333	0
bin	0	0
bin	0.033333333333333	0
bin	0.066666666666667	0
bin	0.1	0
bin	0.13333333333333	0
bin	0.16666666666667	0
bin	0.2	0
bin	0.23333333333333	0
bin	0.26666666666667	0
bin	0.3	0
bin	0.33333333333333	0
bin	0.36666666666667	0
bin	0.4	0
bin	0.43333333333333	0
bin	0.46666666666667	0
bin	0.5	0
scalar MeshLAN.host[0].eth[0].queue.pauseQueue dropPk:count 0
attr interpolationmode none
attr source dropPkByQueue
attr title "dropped packets, count"
scalar MeshLAN.host[0].eth[0].queue.pauseQueue dropPk:sum(packetBytes) 0
attr interpolationmode none
attr source dropPkByQueue
attr title "dropped packets, sum(packetBytes)"
scalar MeshLAN.host[0].eth[0].queue.pauseQueue rcvdPk:count 0
attr interpolationmode none
attr title "received packets, count"
scalar MeshLAN.host[0].eth[0].queue.pauseQueue rcvdPk:sum(packetBytes) 0
attr interpolationmode none
attr title "received packets, sum(packetBytes)"
scalar MeshLAN.host[0].eth[0].queue.dataQueue queueLength:max 7
attr interpolationmode sample-hold
attr title "queue length, max"
scalar MeshLAN.host[0].eth[0].queue.dataQueue queueLength:timeavg 0.19315160568927
attr interpolationmode sample-hold
attr title "queue length, timeavg"
statistic MeshLAN.host[0].eth[0].queue.dataQueue queueingTime:histogram
field count 6570
field mean 0.00044087342882282
field stddev 0.00054285100644261
field min 0
field max 0.004019751829
field sum 2.8965384273659
field sqrsum 0.0032128071448108
attr interpolationmode none
attr title "queueing time, histogram"
bin	-inf	0
bin	-0.001012962334	0
bin	-0.00087790068946667	0
bin	-0.00074283904493333	0
bin	-0.0006077774004	0
bin	-0.00047271575586667	0
bin	-0.00033765411133333	0
bin	-0.0002025924668	0
bin	-6.7530822266667e-005	3377
bin	6.7530822266667e-005	132
bin	0.0002025924668	128
bin	0.00033765411133333	133
bin	0.00047271575586667	119
bin	0.0006077774004	124
bin	0.00074283904493333	1734
bin	0.00087790068946667	154
bin	0.001012962334	125
bin	0.0011480239785333	106
bin	0.0012830856230667	75
bin	0.0014181472676	91
bin	0.0015532089121333	59
bin	0.0016882705566667	74
bin	0.0018233322012	41
bin	0.0019583938457333	35
bin	0.0020934554902667	16
bin	0.0022285171348	13
bin	0.0023635787793333	9
bin	0.0024986404238667	11
bin	0.0026337020684	3
bin	0.0027687637129333	2
bin	0.0029038253574667	3
bin	0.003038887002	6
scalar MeshLAN.host[0].eth[0].queue.dataQueue dropPk:count 0
attr interpolationmode none
attr source dropPkByQueue
attr title "dropped packets, count"
scalar MeshLAN.host[0].eth[0].queue.dataQueue dropPk:sum(packetBytes) 0
attr interpolationmode none
attr source dropPkByQueue
attr title "dropped packets, sum(packetBytes)"
scalar MeshLAN.host[0].eth[0].queue.dataQueue rcvdPk:count 6570
attr interpolationmode none
attr title "received packets, count"
scalar MeshLAN.host[0].eth[0].queue.dataQueue rcvdPk:sum(packetBytes) 4754132
attr interpolationmode none
attr title "received packets, sum(packetBytes)"
scalar MeshLAN.host[0].eth[0].mac "simulated time" 20
scalar MeshLAN.host[0].eth[0].mac full-duplex 1
scalar MeshLAN.host[0].eth[0].mac "frames/sec sent" 454.15
scalar MeshLAN.host[0].eth[0].mac "frames/sec rcvd" 454.3
scalar MeshLAN.host[0].eth[0].mac "bits/sec sent" 2623962.4
scalar MeshLAN.host[0].eth[0].mac "bits/sec rcvd" 2625208
scalar MeshLAN.host[0].eth[0].mac "rx channel idle (%)" 73.457168
scalar MeshLAN.host[0].eth[0].mac "rx channel utilization (%)" 26.542832
scalar MeshLAN.host[0].eth[0].mac rxPkFromHL:count 6570
attr interpolationmode none
attr source rxPkFromHL
attr title "packet bytes from higher layer, count"
scalar MeshLAN.host[0].eth[0].mac rxPkFromHL:sum(packetBytes) 4754132
attr interpolationmode none
attr source rxPkFromHL
attr title "packet bytes from higher layer, sum(packetBytes)"
scalar MeshLAN.host[0].eth[0].mac rxPausePkUnits:count 0
attr interpolationmode none
attr title "pause units received, count"
scalar MeshLAN.host[0].eth[0].mac rxPausePkUnits:sum 0
attr interpolationmode none
attr title "pause units received, sum"
scalar MeshLAN.host[0].eth[0].mac txPausePkUnits:count 0
attr interpolationmode none
attr title "pause units sent, count"
scalar MeshLAN.host[0].eth[0].mac txPausePkUnits:sum 0
attr interpolationmode none
attr title "pause units sent, sum"
scalar MeshLAN.host[0].eth[0].mac txPk:count 6570
attr interpolationmode none
attr source txPk
attr title "packets transmitted, count"
scalar MeshLAN.host[0].eth[0].mac txPk:sum(packetBytes) 4754132
attr interpolationmode none
attr source txPk
attr title "packets transmitted, sum(packetBytes)"
scalar MeshLAN.host[0].eth[0].mac droppedPkNotForUs:count 0
attr interpolationmode none
attr source dropPkNotForUs
attr title "packets dropped/not for us, count"
scalar MeshLAN.host[0].eth[0].mac droppedPkNotForUs:sum(packetBytes) 0
attr interpolationmode none
attr source dropPkNotForUs
attr title "packets dropped/not for us, sum(packetBytes)"
scalar MeshLAN.host[0].eth[0].mac droppedPkBitError:count 0
attr interpolationmode none
attr source dropPkBitError
attr title "packets dropped/bit error, count"
scalar MeshLAN.host[0].eth[0].mac droppedPkBitError:sum(packetBytes) 0
attr interpolationmode none
attr source dropPkBitError
attr title "packets dropped/bit error, sum(packetBytes)"
scalar MeshLAN.host[0].eth[0].mac droppedPkIfaceDown:count 0
attr interpolationmode none
attr source dropPkIfaceDown
attr title "packets dropped/interface down, count"
scalar MeshLAN.host[0].eth[0].mac droppedPkIfaceDown:sum(packetBytes) 0
attr interpolationmode none
attr source dropPkIfaceDown
attr title "packets dropped/interface down, sum(packetBytes)"
scalar MeshLAN.host[0].eth[0].mac rxPkOk:count 6574
attr interpolationmode none
attr source rxPkOk
attr title "packets received OK, count"
scalar MeshLAN.host[0].eth[0].mac rxPkOk:sum(packetBytes) 4757068
attr interpolationmode none
attr source rxPkOk
attr title "packets received OK, sum(packetBytes)"
scalar MeshLAN.host[0].eth[0].mac passedUpPk:count 6574
attr interpolationmode none
attr source packetSentToUpper
attr title "packets passed to higher layer, count"
scalar MeshLAN.host[0].eth[0].mac passedUpPk:sum(packetBytes) 4757068
attr interpolationmode none
attr source packetSentToUpper
attr title "packets passed to higher layer, sum(packetBytes)"
scalar MeshLAN.host[0].eth[0].encap pauseSent:count 0
attr title "pause sent, count"
scalar MeshLAN.host[0].eth[0].encap pauseSent:sum 0
attr title "pause sent, sum"
scalar MeshLAN.host[0].eth[0].encap decapPk:count 6574
attr interpolationmode none
attr source decapPk
attr title "packets decapsulated, count"
scalar MeshLAN.host[0].eth[0].encap decapPk:sum(packetBytes) 4638689
attr interpolationmode none
attr source decapPk
attr title "packets decapsulated, sum(packetBytes)"
scalar MeshLAN.host[0].eth[0].encap encapPk:count 6570
attr interpolationmode none
attr source encapPk
attr title "packets encapsulated, count"
scalar MeshLAN.host[0].eth[0].encap encapPk:sum(packetBytes) 4635825
attr interpolationmode none
attr source encapPk
attr title "packets encapsulated, sum(packetBytes)"
scalar MeshLAN.host[0].pingApp[0] "Pings sent" 185
scalar MeshLAN.host[0].pingApp[0] "ping loss rate (%)" 0
scalar MeshLAN.host[0].pingApp[0] "ping out-of-order rate (%)" 0
scalar MeshLAN.host[0].pingApp[0] pingRxSeq:count 138
attr interpolationmode none
attr title "ping rx seq, count"
scalar MeshLAN.host[0].pingApp[0] pingTxSeq:count 138
attr interpolationmode none
attr title "ping tx seq, count"
scalar MeshLAN.host[0].pingApp[0] numOutOfOrderArrivals:last nan
attr interpolationmode none
attr title "ping out-of-order arrivals, last"
scalar MeshLAN.host[0].pingApp[0] numLost:last nan
attr interpolationmode none
attr title "pings lost, last"
scalar MeshLAN.host[0].pingApp[0] rtt:mean 0.0048217469686496
attr interpolationmode none
attr title "ping round-trip time, mean"
attr unit s
scalar MeshLAN.host[0].pingApp[1] "Pings sent" 187
scalar MeshLAN.host[0].pingApp[1] "ping loss rate (%)" 0
scalar MeshLAN.host[0].pingApp[1] "ping out-of-order rate (%)" 0
scalar MeshLAN.host[0].pingApp[1] pingRxSeq:count 139
attr interpolationmode none
attr title "ping rx seq, count"
scalar MeshLAN.host[0].pingApp[1] pingTxSeq:count 139
attr interpolationmode none
attr title "ping tx seq, count"
scalar MeshLAN.host[0].pingApp[1] numOutOfOrderArrivals:last nan
attr interpolationmode none
attr title "ping out-of-order arrivals, last"
scalar MeshLAN.host[0].pingApp[1] numLost:last nan
attr interpolationmode none
attr title "pings lost, last"
scalar MeshLAN.host[0].pingApp[1] rtt:mean 0.0037598972444088
attr interpolationmode none
attr title "ping round-trip time, mean"
attr unit s
scalar MeshLAN.host[0].pingApp[2] "Pings sent" 195
scalar MeshLAN.host[0].pingApp[2] "ping loss rate (%)" 0
scalar MeshLAN.host[0].pingApp[2] "ping out-of-order rate (%)" 0
scalar MeshLAN.host[0].pingApp[2] pingRxSeq:count 142
attr interpolationmode none
attr title "ping rx seq, count"
scalar MeshLAN.host[0].pingApp[2] pingTxSeq:count 142
attr interpolationmode none
attr title "ping tx seq, count"
scalar MeshLAN.host[0].pingApp[2] numOutOfOrderArrivals:last nan
attr interpolationmode none
attr title "ping out-of-order arrivals, last"
scalar MeshLAN.host[0].pingApp[2] numLost:last nan
attr interpolationmode none
attr title "pings lost, last"
scalar MeshLAN.host[0].pingApp[2] rtt:mean 0.0038456104101286
attr interpolationmode none
attr title "ping round-trip time, mean"
attr unit s
scalar MeshLAN.host[0].pingApp[3] "Pings sent" 196
scalar MeshLAN.host[0].pingApp[3] "ping loss rate (%)" 0
scalar MeshLAN.host[0].pingApp[3] "ping out-of-order rate (%)" 0
scalar MeshLAN.host[0].pingApp[3] pingRxSeq:count 149
attr interpolationmode none
attr title "ping rx seq, count"
scalar MeshLAN.host[0].pingApp[3] pingTxSeq:count 149
attr interpolationmode none
attr title "ping tx seq, count"
scalar MeshLAN.host[0].pingApp[3] numOutOfOrderArrivals:last nan
attr interpolationmode none
attr title "ping out-of-order arrivals, last"
scalar MeshLAN.host[0].pingApp[3] numLost:last nan
attr interpolationmode none
attr title "pings lost, last"
scalar MeshLAN.host[0].pingApp[3] rtt:mean 0.0030182963014178
attr interpolationmode none
attr title "ping round-trip time, mean"
attr unit s
scalar MeshLAN.host[0].pingApp[4] "Pings sent" 189
scalar MeshLAN.host[0].pingApp[4] "ping loss rate (%)" 0
scalar MeshLAN.host[0].pingApp[4] "ping out-of-order rate (%)" 0
scalar MeshLAN.host[0].pingApp[4] pingRxSeq:count 143
attr interpolationmode none
attr title "ping rx seq, count"
scalar MeshLAN.host[0].pingApp[4] pingTxSeq:count 143
attr interpolationmode none
attr title "ping tx seq, count"
scalar MeshLAN.host[0].pingApp[4] numOutOfOrderArrivals:last nan
attr interpolationmode none
attr title "ping out-of-order arrivals, last"
scalar MeshLAN.host[0].pingApp[4] numLost:last nan
attr interpolationmode none
attr title "pings lost, last"
scalar MeshLAN.host[0].pingApp[4] rtt:mean 0.0046648074708865
attr interpolationmode none
attr title "ping round-trip time, mean"
attr unit s
scalar MeshLAN.host[0].pingApp[5] "Pings sent" 193
scalar MeshLAN.host[0].pingApp[5] "ping loss rate (%)" 0
scalar MeshLAN.host[0].pingApp[5] "ping out-of-order rate (%)" 0
scalar MeshLAN.host[0].pingApp[5] pingRxSeq:count 147
attr interpolationmode none
attr title "ping rx seq, count"
scalar MeshLAN.host[0].pingApp[5] pingTxSeq:count 147
attr interpolationmode none
attr title "ping tx seq, count"
scalar MeshLAN.host[0].pingApp[5] numOutOfOrderArrivals:last nan
attr interpolationmode none
attr title "ping out-of-order arrivals, last"
scalar MeshLAN.host[0].pingApp[5] numLost:last nan
attr interpolationmode none
attr title "pings lost, last"
scalar MeshLAN.host[0].pingApp[5] rtt:mean 0.0032992274327931
attr interpolationmode none
attr title "ping round-trip time, mean"
attr unit s
scalar MeshLAN.host[0].pingApp[6] "Pings sent" 206
scalar MeshLAN.host[0].pingApp[6] "ping loss rate (%)" 0
scalar MeshLAN.host[0].pingApp[6] "ping out-of-order rate (%)" 0
scalar MeshLAN.host[0].pingApp[6] pingRxSeq:count 155
attr interpolationmode none
attr title "ping rx seq, count"
scalar MeshLAN.host[0].pingApp[6] pingTxSeq:count 155
attr interpolationmode none
attr title "ping tx seq, count"
scalar MeshLAN.host[0].pingApp[6] numOutOfOrderArrivals:last nan
attr interpolationmode none
attr title "ping out-of-order arrivals, last"
scalar MeshLAN.host[0].pingApp[6] numLost:last nan
attr interpolationmode none
attr title "pings lost, last"
scalar MeshLAN.host[0].pingApp[6] rtt:mean 0.0028133150403226
attr interpolationmode none
attr title "ping round-trip time, mean"
attr unit s
scalar MeshLAN.host[0].pingApp[7] "Pings sent" 190
scalar MeshLAN.host[0].pingApp[7] "ping loss rate (%)" 0
scalar MeshLAN.host[0].pingApp[7] "ping out-of-order rate (%)" 0
scalar MeshLAN.host[0].pingApp[7] pingRxSeq:count 142
attr interpolationmode none
attr title "ping rx seq, count"
scalar MeshLAN.host[0].pingApp[7] pingTxSeq:count 142
attr interpolationmode none
attr title "ping tx seq, count"
scalar MeshLAN.host[0].pingApp[7] numOutOfOrderArrivals:last nan
attr interpolationmode none
attr title "ping out-of-order arrivals, last"
scalar MeshLAN.host[0].pingApp[7] numLost:last nan
attr interpolationmode none
attr title "pings lost, last"
scalar MeshLAN.host[0].pingApp[7] rtt:mean 0.0032585727921643
attr interpolationmode none
attr title "ping round-trip time, mean"
attr unit s
scalar MeshLAN.host[0].pingApp[8] "Pings sent" 188
scalar MeshLAN.host[0].pingApp[8] "ping loss rate (%)" 0
scalar MeshLAN.host[0].pingApp[8] "ping out-of-order rate (%)" 0
scalar MeshLAN.host[0].pingApp[8] pingRxSeq:count 136
attr interpolationmode none
attr title "ping rx seq, count"
scalar MeshLAN.host[0].pingApp[8] pingTxSeq:count 136
attr interpolationmode none
attr title "ping tx seq, count"
scalar MeshLAN.host[0].pingApp[8] numOutOfOrderArrivals:last nan
attr interpolationmode none
attr title "ping out-of-order arrivals, last"
scalar MeshLAN.host[0].pingApp[8] numLost:last nan
attr interpolationmode none
attr title "pings lost, last"
scalar MeshLAN.host[0].pingApp[8] rtt:mean 0.0021879370817926
attr interpolationmode none
attr title "ping round-trip time, mean"
attr unit s
scalar MeshLAN.host[0].pingApp[9] "Pings sent" 188
scalar MeshLAN.host[0].pingApp[9] "ping loss rate (%)" 0
scalar MeshLAN.host[0].pingApp[9] "ping out-of-order rate (%)" 0
scalar MeshLAN.host[0].pingApp[9] pingRxSeq:count 141
attr interpolationmode none
attr title "ping rx seq, count"
scalar MeshLAN.host[0].pingApp[9] pingTxSeq:count 141
attr interpolationmode none
attr title "ping tx seq, count"
scalar MeshLAN.host[0].pingApp[9] numOutOfOrderArrivals:last nan
attr interpolationmode none
attr title "ping out-of-order arrivals, last"
scalar MeshLAN.host[0].pingApp[9] numLost:last nan
attr interpolationmode none
attr title "pings lost, last"
scalar MeshLAN.host[0].pingApp[9] rtt:mean 0.00428170995145
attr interpolationmode none
attr title "ping round-trip time, mean"
attr unit s
scalar MeshLAN.host[0].pingApp[10] "Pings sent" 191
scalar MeshLAN.host[0].pingApp[10] "ping loss rate (%)" 0
scalar MeshLAN.host[0].pingApp[10] "ping out-of-order rate (%)" 0
scalar MeshLAN.host[0].pingApp[10] pingRxSeq:count 146
attr interpolationmode none
attr title "ping rx seq, count"
scalar MeshLAN.host[0].pingApp[10] pingTxSeq:count 146
attr interpolationmode none
attr title "ping tx seq, count"
scalar MeshLAN.host[0].pingApp[10] numOutOfOrderArrivals:last nan
attr interpolationmode none
attr title "ping out-of-order arrivals, last"
scalar MeshLAN.host[0].pingApp[10] numLost:last nan
attr interpolationmode none
attr title "pings lost, last"
scalar MeshLAN.host[0].pingApp[10] rtt:mean 0.0032299970942966
attr interpolationmode none
attr title "ping round-trip time, mean"
attr unit s
scalar MeshLAN.host[0].pingApp[11] "Pings sent" 191
scalar MeshLAN.host[0].pingApp[11] "ping loss rate (%)" 0
scalar MeshLAN.host[0].pingApp[11] "ping out-of-order rate (%)" 0
scalar MeshLAN.host[0].pingApp[11] pingRxSeq:count 146
attr interpolationmode none
attr title "ping rx seq, count"
scalar MeshLAN.host[0].pingApp[11] pingTxSeq:count 145
attr interpolationmode none
attr title "ping tx seq, count"
scalar MeshLAN.host[0].pingApp[11] numOutOfOrderArrivals:last nan
attr interpolationmode none
attr title "ping out-of-order arrivals, last"
scalar MeshLAN.host[0].pingApp[11] numLost:last nan
attr interpolationmode none
attr title "pings lost, last"
scalar MeshLAN.host[0].pingApp[11] rtt:mean 0.0043181132751773
attr interpolationmode none
attr title "ping round-trip time, mean"
attr unit s
scalar MeshLAN.host[0].pingApp[12] "Pings sent" 209
scalar MeshLAN.host[0].pingApp[12] "ping loss rate (%)" 0
scalar MeshLAN.host[0].pingApp[12] "ping out-of-order rate (%)" 0
scalar MeshLAN.host[0].pingApp[12] pingRxSeq:count 162
attr interpolationmode none
attr title "ping rx seq, count"
scalar MeshLAN.host[0].pingApp[12] pingTxSeq:count 162
attr interpolationmode none
attr title "ping tx seq, count"
scalar MeshLAN.host[0].pingApp[12] numOutOfOrderArrivals:last nan
attr interpolationmode none
attr title "ping out-of-order arrivals, last"
scalar MeshLAN.host[0].pingApp[12] numLost:last nan
attr interpolationmode none
attr title "pings lost, last"
scalar MeshLAN.host[0].pingApp[12] rtt:mean 0.0050205110148063
attr interpolationmode none
attr title "ping round-trip time, mean"
attr unit s
scalar MeshLAN.host[0].pingApp[13] "Pings sent" 201
scalar MeshLAN.host[0].pingApp[13] "ping loss rate (%)" 0
scalar MeshLAN.host[0].pingApp[13] "ping out-of-order rate (%)" 0
scalar MeshLAN.host[0].pingApp[13] pingRxSeq:count 150
attr interpolationmode none
attr title "ping rx seq, count"
scalar MeshLAN.host[0].pingApp[13] pingTxSeq:count 150
attr interpolationmode none
attr title "ping tx seq, count"
scalar MeshLAN.host[0].pingApp[13] numOutOfOrderArrivals:last nan
attr interpolationmode none
attr title "ping out-of-order arrivals, last"
scalar MeshLAN.host[0].pingApp[13] numLost:last nan
attr interpolationmode none
attr title "pings lost, last"
scalar MeshLAN.host[0].pingApp[13] rtt:mean 0.0039232864553
attr interpolationmode none
attr title "ping round-trip time, mean"
attr unit s
scalar MeshLAN.host[0].pingApp[14] "Pings sent" 197
scalar MeshLAN.host[0].pingApp[14] "ping loss rate (%)" 0.50761421319797
scalar MeshLAN.host[0].pingApp[14] "ping out-of-order rate (%)" 0
scalar MeshLAN.host[0].pingApp[14] pingRxSeq:count 146
attr interpolationmode none
attr title "ping rx seq, count"
scalar MeshLAN.host[0].pingApp[14] pingTxSeq:count 146
attr interpolationmode none
attr title "ping tx seq, count"
scalar MeshLAN.host[0].pingApp[14] numOutOfOrderArrivals:last nan
attr interpolationmode none
attr title "ping out-of-order arrivals, last"
scalar MeshLAN.host[0].pingApp[14] numLost:last nan
attr interpolationmode none
attr title "pings lost, last"
scalar MeshLAN.host[0].pingApp[14] rtt:mean 0.0044198465833264
attr interpolationmode none
attr title "ping round-trip time, mean"
attr unit s
scalar MeshLAN.host[0].pingApp[15] "Pings sent" 199
scalar MeshLAN.host[0].pingApp[15] "ping loss rate (%)" 0
scalar MeshLAN.host[0].pingApp[15] "ping out-of-order rate (%)" 0
scalar MeshLAN.host[0].pingApp[15] pingRxSeq:count 147
attr interpolationmode none
attr title "ping rx seq, count"
scalar MeshLAN.host[0].pingApp[15] pingTxSeq:count 147
attr interpolationmode none
attr title "ping tx seq, count"
scalar MeshLAN.host[0].pingApp[15] numOutOfOrderArrivals:last nan
attr interpolationmode none
attr title "ping out-of-order arrivals, last"
scalar MeshLAN.host[0].pingApp[15] numLost:last nan
attr interpolationmode none
attr title "pings lost, last"
scalar MeshLAN.host[0].pingApp[15] rtt:mean 0.0033941976441497
attr interpolationmode none
attr title "ping round-trip time, mean"
attr unit s
scalar MeshLAN.host[0].pingApp[16] "Pings sent" 196
scalar MeshLAN.host[0].pingApp[16] "ping loss rate (%)" 0
scalar MeshLAN.host[0].pingApp[16] "ping out-of-order rate (%)" 0
scalar MeshLAN.host[0].pingApp[16] pingRxSeq:count 148
attr interpolationmode none
attr title "ping rx seq, count"
scalar MeshLAN.host[0].pingApp[16] pingTxSeq:count 148
attr interpolationmode none
attr title "ping tx seq, count"
scalar MeshLAN.host[0].pingApp[16] numOutOfOrderArrivals:last nan
attr interpolationmode none
attr title "ping out-of-order arrivals, last"
scalar MeshLAN.host[0].pingApp[16] numLost:last nan
attr interpolationmode none
attr title "pings lost, last"
scalar MeshLAN.host[0].pingApp[16] rtt:mean 0.0040926222062313
attr interpolationmode none
attr title "ping round-trip time, mean"
attr unit s
scalar MeshLAN.host[0].pingApp[17] "Pings sent" 187
scalar MeshLAN.host[0].pingApp[17] "ping loss rate (%)" 0
scalar MeshLAN.host[0].pingApp[17] "ping out-of-order rate (%)" 0
scalar MeshLAN.host[0].pingApp[17] pingRxSeq:count 139
attr interpolationmode none
attr title "ping rx seq, count"
scalar MeshLAN.host[0].pingApp[17] pingTxSeq:count 139
attr interpolationmode none
attr title "ping tx seq, count"
scalar MeshLAN.host[0].pingApp[17] numOutOfOrderArrivals:last nan
attr interpolationmode none
attr title "ping out-of-order arrivals, last"
scalar MeshLAN.host[0].pingApp[17] numLost:last nan
attr interpolationmode none
attr title "pings lost, last"
scalar MeshLAN.host[0].pingApp[17] rtt:mean 0.0042356987368116
attr interpolationmode none
attr title "ping round-trip time, mean"
attr unit s
scalar MeshLAN.host[0].pingApp[18] "Pings sent" 198
scalar MeshLAN.host[0].pingApp[18] "ping loss rate (%)" 0
scalar MeshLAN.host[0].pingApp[18] "ping out-of-order rate (%)" 0
scalar MeshLAN.host[0].pingApp[18] pingRxSeq:count 150
attr interpolationmode none
attr title "ping rx seq, count"
scalar MeshLAN.host[0].pingApp[18] pingTxSeq:count 150
attr interpolationmode none
attr title "ping tx seq, count"
scalar MeshLAN.host[0].pingApp[18] numOutOfOrderArrivals:last nan
attr interpolationmode none
attr title "ping out-of-order arrivals, last"
scalar MeshLAN.host[0].pingApp[18] numLost:last nan
attr interpolationmode none
attr title "pings lost, last"
scalar MeshLAN.host[0].pingApp[18] rtt:mean 0.0012434815348054
attr interpolationmode none
attr title "ping round-trip time, mean"
attr unit s
scalar MeshLAN.host[0].pingApp[19] "Pings sent" 197
scalar MeshLAN.host[0].pingApp[19] "ping loss rate (%)" 0
scalar MeshLAN.host[0].pingApp[19] "ping out-of-order rate (%)" 0
scalar MeshLAN.host[0].pingApp[19] pingRxSeq:count 150
attr interpolationmode none
attr title "ping rx seq, count"
scalar MeshLAN.host[0].pingApp[19] pingTxSeq:count 150
attr interpolationmode none
attr title "ping tx seq, count"
scalar MeshLAN.host[0].pingApp[19] numOutOfOrderArrivals:last nan
attr interpolationmode none
attr title "ping out-of-order arrivals, last"
scalar MeshLAN.host[0].pingApp[19] numLost:last nan
attr interpolationmode none
attr title "pings lost, last"
scalar MeshLAN.host[0].pingApp[19] rtt:mean 0.0018210059457067
attr interpolationmode none
attr title "ping round-trip time, mean"
attr unit s
scalar MeshLAN.host[0].pingApp[20] "Pings sent" 201
scalar MeshLAN.host[0].pingApp[20] "ping loss rate (%)" 0
scalar MeshLAN.host[0].pingApp[20] "ping out-of-order rate (%)" 0
scalar MeshLAN.host[0].pingApp[20] pingRxSeq:count 157
attr interpolationmode none
attr title "ping rx seq, count"
scalar MeshLAN.host[0].pingApp[20] pingTxSeq:count 157
attr interpolationmode none
attr title "ping tx seq, count"
scalar MeshLAN.host[0].pingApp[20] numOutOfOrderArrivals:last nan
attr interpolationmode none
attr title "ping out-of-order arrivals, last"
scalar MeshLAN.host[0].pingApp[20] numLost:last nan
attr interpolationmode none
attr title "pings lost, last"
scalar MeshLAN.host[0].pingApp[20] rtt:mean 0.0029997434024013
attr interpolationmode none
attr title "ping round-trip time, mean"
attr unit s
scalar MeshLAN.host[0].pingApp[21] "Pings sent" 178
scalar MeshLAN.host[0].pingApp[21] "ping loss rate (%)" 0
scalar MeshLAN.host[0].pingApp[21] "ping out-of-order rate (%)" 0
scalar MeshLAN.host[0].pingApp[21] pingRxSeq:count 134
attr interpolationmode none
attr title "ping rx seq, count"
scalar MeshLAN.host[0].pingApp[21] pingTxSeq:count 134
attr interpolationmode none
attr title "ping tx seq, count"
scalar MeshLAN.host[0].pingApp[21] numOutOfOrderArrivals:last nan
attr interpolationmode none
attr title "ping out-of-order arrivals, last"
scalar MeshLAN.host[0].pingApp[21] numLost:last nan
attr interpolationmode none
attr title "pings lost, last"
scalar MeshLAN.host[0].pingApp[21] rtt:mean 0.0040269029699084
attr interpolationmode none
attr title "ping round-trip time, mean"
attr unit s
scalar MeshLAN.host[0].pingApp[22] "Pings sent" 182
scalar MeshLAN.host[0].pingApp[22] "ping loss rate (%)" 0
scalar MeshLAN.host[0].pingApp[22] "ping out-of-order rate (%)" 0
scalar MeshLAN.host[0].pingApp[22] pingRxSeq:count 137
attr interpolationmode none
attr title "ping rx seq, count"
scalar MeshLAN.host[0].pingApp[22] pingTxSeq:count 137
attr interpolationmode none
attr title "ping tx seq, count"
scalar MeshLAN.host[0].pingApp[22] numOutOfOrderArrivals:last nan
attr interpolationmode none
attr title "ping out-of-order arrivals, last"
scalar MeshLAN.host[0].pingApp[22] numLost:last nan
attr interpolationmode none
attr title "pings lost, last"
scalar MeshLAN.host[0].pingApp[22] rtt:mean 0.0021659233959489
attr interpolationmode none
attr title "ping round-trip time, mean"
attr unit s
scalar MeshLAN.host[0].pingApp[23] "Pings sent" 201
scalar MeshLAN.host[0].pingApp[23] "ping loss rate (%)" 0
scalar MeshLAN.host[0].pingApp[23] "ping out-of-order rate (%)" 0
scalar MeshLAN.host[0].pingApp[23] pingRxSeq:count 152
attr interpolationmode none
attr title "ping rx seq, count"
scalar MeshLAN.host[0].pingApp[23] pingTxSeq:count 151
attr interpolationmode none
attr title "ping tx seq, count"
scalar MeshLAN.host[0].pingApp[23] numOutOfOrderArrivals:last nan
attr interpolationmode none
attr title "ping out-of-order arrivals, last"
scalar MeshLAN.host[0].pingApp[23] numLost:last nan
attr interpolationmode none
attr title "pings lost, last"
scalar MeshLAN.host[0].pingApp[23] rtt:mean 0.0043358599182914
attr interpolationmode none
attr title "ping round-trip time, mean"
attr unit s
scalar MeshLAN.host[0].pingApp[24] "Pings sent" 192
scalar MeshLAN.host[0].pingApp[24] "ping loss rate (%)" 0
scalar MeshLAN.host[0].pingApp[24] "ping out-of-order rate (%)" 0
scalar MeshLAN.host[0].pingApp[24] pingRxSeq:count 144
attr interpolationmode none
attr title "ping rx seq, count"
scalar MeshLAN.host[0].pingApp[24] pingTxSeq:count 144
attr interpolationmode none
attr title "ping tx seq, count"
scalar MeshLAN.host[0].pingApp[24] numOutOfOrderArrivals:last nan
attr interpolationmode none
attr title "ping out-of-order arrivals, last"
scalar MeshLAN.host[0].pingApp[24] numLost:last nan
attr interpolationmode none
attr title "pings lost, last"
scalar MeshLAN.host[0].pingApp[24] rtt:mean 0.0029198065781528
attr interpolationmode none
attr title "ping round-trip time, mean"
attr unit s
scalar MeshLAN.host[0].pingApp[25] "Pings sent" 189
scalar MeshLAN.host[0].pingApp[25] "ping loss rate (%)" 0
scalar MeshLAN.host[0].pingApp[25] "ping out-of-order rate (%)" 0
scalar MeshLAN.host[0].pingApp[25] pingRxSeq:count 146
attr interpolationmode none
attr title "ping rx seq, count"
scalar MeshLAN.host[0].pingApp[25] pingTxSeq:count 146
attr interpolationmode none
attr title "ping tx seq, count"
scalar MeshLAN.host[0].pingApp[25] numOutOfOrderArrivals:last nan
attr interpolationmode none
attr title "ping out-of-order arrivals, last"
scalar MeshLAN.host[0].pingApp[25] numLost:last nan
attr interpolationmode none
attr title "pings lost, last"
scalar MeshLAN.host[0].pingApp[25] rtt:mean 0.0049072215285931
attr interpolationmode none
attr title "ping round-trip time, mean"
attr unit s
scalar MeshLAN.host[0].pingApp[26] "Pings sent" 206
scalar MeshLAN.host[0].pingApp[26] "ping loss rate (%)" 0
scalar MeshLAN.host[0].pingApp[26] "ping out-of-order rate (%)" 0
scalar MeshLAN.host[0].pingApp[26] pingRxSeq:count 152
attr interpolationmode none
attr title "ping rx seq, count"
scalar MeshLAN.host[0].pingApp[26] pingTxSeq:count 152
attr interpolationmode none
attr title "ping tx seq, count"
scalar MeshLAN.host[0].pingApp[26] numOutOfOrderArrivals:last nan
attr interpolationmode none
attr title "ping out-of-order arrivals, last"
scalar MeshLAN.host[0].pingApp[26] numLost:last nan
attr interpolationmode none
attr title "pings lost, last"
scalar MeshLAN.host[0].pingApp[26] rtt:mean 0.0034407377563067
attr interpolationmode none
attr title "ping round-trip time, mean"
attr unit s
scalar MeshLAN.host[0].pingApp[27] "Pings sent" 201
scalar MeshLAN.host[0].pingApp[27] "ping loss rate (%)" 0
scalar MeshLAN.host[0].pingApp[27] "ping out-of-order rate (%)" 0
scalar MeshLAN.host[0].pingApp[27] pingRxSeq:count 149
attr interpolationmode none
attr title "ping rx seq, count"
scalar MeshLAN.host[0].pingApp[27] pingTxSeq:count 149
attr interpolationmode none
attr title "ping tx seq, count"
scalar MeshLAN.host[0].pingApp[27] numOutOfOrderArrivals:last nan
attr interpolationmode none
attr title "ping out-of-order arrivals, last"
scalar MeshLAN.host[0].pingApp[27] numLost:last nan
attr interpolationmode none
attr title "pings lost, last"
scalar MeshLAN.host[0].pingApp[27] rtt:mean 0.0035191844852886
attr interpolationmode none
attr title "ping round-trip time, mean"
attr unit s
scalar MeshLAN.host[1].networkLayer.arp sentReply:count 0
attr title "ARP replies sent, count"
scalar MeshLAN.host[1].networkLayer.arp sentReq:count 0
attr title "ARP request sent, count"
scalar MeshLAN.host[1].networkLayer.arp failedARPResolution:count 0
attr title "ARP failed resolutions, count"
scalar MeshLAN.host[1].networkLayer.arp completedARPResolution:count 0
attr title "ARP completed resolutions, count"
scalar MeshLAN.host[1].networkLayer.arp initiatedARPResolution:count 0
attr title "ARP initiated resolutions, count"
scalar MeshLAN.host[1].lo0.lo droppedPkBitError:count 0
attr interpolationmode none
attr source dropPkBitError
attr title "packets dropped/bit error, count"
scalar MeshLAN.host[1].lo0.lo droppedPkBitError:sum(packetBytes) 0
attr interpolationmode none
attr source dropPkBitError
attr title "packets dropped/bit error, sum(packetBytes)"
scalar MeshLAN.host[1].lo0.lo rcvdPkFromHL:count 88
attr interpolationmode none
attr source packetReceivedFromUpper
attr title "packets received from higher layer, count"
scalar MeshLAN.host[1].lo0.lo rcvdPkFromHL:sum(packetBytes) 56456
attr interpolationmode none
attr source packetReceivedFromUpper
attr title "packets received from higher layer, sum(packetBytes)"
scalar MeshLAN.host[1].lo0.lo passedUpPk:count 88
attr interpolationmode none
attr source packetSentToUpper
attr title "packets passed to higher layer, count"
scalar MeshLAN.host[1].lo0.lo passedUpPk:sum(packetBytes) 56456
attr interpolationmode none
attr source packetSentToUpper
attr title "packets passed to higher layer, sum(packetBytes)"
scalar MeshLAN.host[1].eth[0].queue.pauseQueue queueLength:max nan
attr interpolationmode sample-hold
attr title "queue length, max"
scalar MeshLAN.host[1].eth[0].queue.pauseQueue queueLength:timeavg nan
attr interpolationmode sample-hold
attr title "queue length, timeavg"
statistic MeshLAN.host[1].eth[0].queue.pauseQueue queueingTime:histogram
field count 0
field mean nan
field stddev nan
field min nan
field max nan
field sum 0
field sqrsum 0
attr interpolationmode none
attr title "queueing time, histogram"
bin	-inf	0
bin	-0.5	0
bin	-0.46666666666667	0
bin	-0.43333333333333	0
bin	-0.4	0
bin	-0.36666666666667	0
bin	-0.33333333333333	0
bin	-0.3	0
bin	-0.26666666666667	0
bin	-0.23333333333333	0
bin	-0.2	0
bin	-0.16666666666667	0
bin	-0.13333333333333	0
bin	-0.1	0
bin	-0.066666666666667	0
bin	-0.033333333333333	0
bin	0	0
bin	0.033333333333333	0
bin	0.066666666666667	0
bin	0.1	0
bin	0.13333333333333	0
bin	0.16666666666667	0
bin	0.2	0
bin	0.23333333333333	0
bin	0.26666666666667	0
bin	0.3	0
bin	0.33333333333333	0
bin	0.36666666666667	0
bin	0.4	0
bin	0.43333333333333	0
bin	0.46666666666667	0
bin	0.5	0
scalar MeshLAN.host[1].eth[0].queue.pauseQueue dropPk:count 0
attr interpolationmode none
attr source dropPkByQueue
attr title "dropped packets, count"
scalar MeshLAN.host[1].eth[0].queue.pauseQueue dropPk:sum(packetBytes) 0
attr interpolationmode none
attr source dropPkByQueue
attr title "dropped packets, sum(packetBytes)"
scalar MeshLAN.host[1].eth[0].queue.pauseQueue rcvdPk:count 0
attr interpolationmode none
attr title "received packets, count"
scalar MeshLAN.host[1].eth[0].queue.pauseQueue rcvdPk:sum(packetBytes) 0
attr interpolationmode none
attr title "received packets, sum(packetBytes)"
scalar MeshLAN.host[1].eth[0].queue.dataQueue queueLength:max 6
attr interpolationmode sample-hold
attr title "queue length, max"
scalar MeshLAN.host[1].eth[0].queue.dataQueue queueLength:timeavg 0.1835196752027
attr interpolationmode sample-hold
attr title "queue length, timeavg"
statistic MeshLAN.host[1].eth[0].queue.dataQueue queueingTime:histogram
field count 6586
field mean 0.00041781624459777
field stddev 0.00051681111649583
field min 0
field max 0.003579976053
field sum 2.7517377869209
field sqrsum 0.0029085329611792
attr interpolationmode none
attr title "queueing time, histogram"
bin	-inf	0
bin	-0.001379843159	0
bin	-0.0011958640711333	0
bin	-0.0010118849832667	0
bin	-0.0008279058954	0
bin	-0.00064392680753333	0
bin	-0.00045994771966667	0
bin	-0.0002759686318	0
bin	-9.1989543933333e-005	3480
bin	9.1989543933333e-005	196
bin	0.0002759686318	186
bin	0.00045994771966667	122
bin	0.00064392680753333	111
bin	0.0008279058954	1918
bin	0.0010118849832667	160
bin	0.0011958640711333	128
bin	0.001379843159	76
bin	0.0015638222468667	75
bin	0.0017478013347333	54
bin	0.0019317804226	40
bin	0.0021157595104667	11
bin	0.0022997385983333	12
bin	0.0024837176862	6
bin	0.0026676967740667	5
bin	0.0028516758619333	3
bin	0.0030356549498	2
bin	0.0032196340376667	0
bin	0.0034036131255333	1
bin	0.0035875922134	0
bin	0.0037715713012667	0
bin	0.0039555503891333	0
bin	0.004139529477	0
scalar MeshLAN.host[1].eth[0].queue.dataQueue dropPk:count 0
attr interpolationmode none
attr source dropPkByQueue
attr title "dropped packets, count"
scalar MeshLAN.host[1].eth[0].queue.dataQueue dropPk:sum(packetBytes) 0
attr interpolationmode none
attr source dropPkByQueue
attr title "dropped packets, sum(packetBytes)"
scalar MeshLAN.host[1].eth[0].queue.dataQueue rcvdPk:count 6586
attr interpolationmode none
attr title "received packets, count"
scalar MeshLAN.host[1].eth[0].queue.dataQueue rcvdPk:sum(packetBytes) 4320327
attr interpolationmode none
attr title "received packets, sum(packetBytes)"
scalar MeshLAN.host[1].eth[0].mac "simulated time" 20
scalar MeshLAN.host[1].eth[0].mac full-duplex 1
scalar MeshLAN.host[1].eth[0].mac "frames/sec sent" 434.45
scalar MeshLAN.host[1].eth[0].mac "frames/sec rcvd" 434.4
scalar MeshLAN.host[1].eth[0].mac "bits/sec sent" 2282596.8
scalar MeshLAN.host[1].eth[0].mac "bits/sec rcvd" 2282470.8
scalar MeshLAN.host[1].eth[0].mac "rx channel idle (%)" 76.897276
scalar MeshLAN.host[1].eth[0].mac "rx channel utilization (%)" 23.102724
scalar MeshLAN.host[1].eth[0].mac rxPkFromHL:count 6586
attr interpolationmode none
attr source rxPkFromHL
attr title "packet bytes from higher layer, count"
scalar MeshLAN.host[1].eth[0].mac rxPkFromHL:sum(packetBytes) 4320327
attr interpolationmode none
attr source rxPkFromHL
attr title "packet bytes from higher layer, sum(packetBytes)"
scalar MeshLAN.host[1].eth[0].mac rxPausePkUnits:count 0
attr interpolationmode none
attr title "pause units received, count"
scalar MeshLAN.host[1].eth[0].mac rxPausePkUnits:sum 0
attr interpolationmode none
attr title "pause units received, sum"
scalar MeshLAN.host[1].eth[0].mac txPausePkUnits:count 0
attr interpolationmode none
attr title "pause units sent, count"
scalar MeshLAN.host[1].eth[0].mac txPausePkUnits:sum 0
attr interpolationmode none
attr title "pause units sent, sum"
scalar MeshLAN.host[1].eth[0].mac txPk:count 6586
attr interpolationmode none
attr source txPk
attr title "packets transmitted, count"
scalar MeshLAN.host[1].eth[0].mac txPk:sum(packetBytes) 4320327
attr interpolationmode none
attr source txPk
attr title "packets transmitted, sum(packetBytes)"
scalar MeshLAN.host[1].eth[0].mac droppedPkNotForUs:count 0
attr interpolationmode none
attr source dropPkNotForUs
attr title "packets dropped/not for us, count"
scalar MeshLAN.host[1].eth[0].mac droppedPkNotForUs:sum(packetBytes) 0
attr interpolationmode none
attr source dropPkNotForUs
attr title "packets dropped/not for us, sum(packetBytes)"
scalar MeshLAN.host[1].eth[0].mac droppedPkBitError:count 0
attr interpolationmode none
attr source dropPkBitError
attr title "packets dropped/bit error, count"
scalar MeshLAN.host[1].eth[0].mac droppedPkBitError:sum(packetBytes) 0
attr interpolationmode none
attr source dropPkBitError
attr title "packets dropped/bit error, sum(packetBytes)"
scalar MeshLAN.host[1].eth[0].mac droppedPkIfaceDown:count 0
attr interpolationmode none
attr source dropPkIfaceDown
attr title "packets dropped/interface down, count"
scalar MeshLAN.host[1].eth[0].mac droppedPkIfaceDown:sum(packetBytes) 0
attr interpolationmode none
attr source dropPkIfaceDown
attr title "packets dropped/interface down, sum(packetBytes)"
scalar MeshLAN.host[1].eth[0].mac rxPkOk:count 6585
attr interpolationmode none
attr source rxPkOk
attr title "packets received OK, count"
scalar MeshLAN.host[1].eth[0].mac rxPkOk:sum(packetBytes) 4320012
attr interpolationmode none
attr source rxPkOk
attr title "packets received OK, sum(packetBytes)"
scalar MeshLAN.host[1].eth[0].mac passedUpPk:count 6585
attr interpolationmode none
attr source packetSentToUpper
attr title "packets passed to higher layer, count"
scalar MeshLAN.host[1].eth[0].mac passedUpPk:sum(packetBytes) 4320012
attr interpolationmode none
attr source packetSentToUpper
attr title "packets passed to higher layer, sum(packetBytes)"
scalar MeshLAN.host[1].eth[0].encap pauseSent:count 0
attr title "pause sent, count"
scalar MeshLAN.host[1].eth[0].encap pauseSent:sum 0
attr title "pause sent, sum"
scalar MeshLAN.host[1].eth[0].encap decapPk:count 6585
attr interpolationmode none
attr source decapPk
attr title "packets decapsulated, count"
scalar MeshLAN.host[1].eth[0].encap decapPk:sum(packetBytes) 4200669
attr interpolationmode none
attr source decapPk
attr title "packets decapsulated, sum(packetBytes)"
scalar MeshLAN.host[1].eth[0].encap encapPk:count 6586
attr interpolationmode none
attr source encapPk
attr title "packets encapsulated, count"
scalar MeshLAN.host[1].eth[0].encap encapPk:sum(packetBytes) 4200966
attr interpolationmode none
attr source encapPk
attr title "packets encapsulated, sum(packetBytes)"
scalar MeshLAN.host[1].pingApp[0] "Pings sent" 186
scalar MeshLAN.host[1].pingApp[0] "ping loss rate (%)" 0
scalar MeshLAN.host[1].pingApp[0] "ping out-of-order rate (%)" 0
scalar MeshLAN.host[1].pingApp[0] pingRxSeq:count 139
attr interpolationmode none
attr title "ping rx seq, count"
scalar MeshLAN.host[1].pingApp[0] pingTxSeq:count 139
attr interpolationmode none
attr title "ping tx seq, count"
scalar MeshLAN.host[1].pingApp[0] numOutOfOrderArrivals:last nan
attr interpolationmode none
attr title "ping out-of-order arrivals, last"
scalar MeshLAN.host[1].pingApp[0] numLost:last nan
attr interpolationmode none
attr title "pings lost, last"
scalar MeshLAN.host[1].pingApp[0] rtt:mean 0.004259591474942
attr interpolationmode none
attr title "ping round-trip time, mean"
attr unit s
scalar MeshLAN.host[1].pingApp[1] "Pings sent" 183
scalar MeshLAN.host[1].pingApp[1] "ping loss rate (%)" 0
scalar MeshLAN.host[1].pingApp[1] "ping out-of-order rate (%)" 0
scalar MeshLAN.host[1].pingApp[1] pingRxSeq:count 143
attr interpolationmode none
attr title "ping rx seq, count"
scalar MeshLAN.host[1].pingApp[1] pingTxSeq:count 143
attr interpolationmode none
attr title "ping tx seq, count"
scalar MeshLAN.host[1].pingApp[1] numOutOfOrderArrivals:last nan
attr interpolationmode none
attr title "ping out-of-order arrivals, last"
scalar MeshLAN.host[1].pingApp[1] numLost:last nan
attr interpolationmode none
attr title "pings lost, last"
scalar MeshLAN.host[1].pingApp[1] rtt:mean 0.0040772095702676
attr interpolationmode none
attr title "ping round-trip time, mean"
attr unit s
scalar MeshLAN.host[1].pingApp[2] "Pings sent" 194
scalar MeshLAN.host[1].pingApp[2] "ping loss rate (%)" 0
scalar MeshLAN.host[1].pingApp[2] "ping out-of-order rate (%)" 0
scalar MeshLAN.host[1].pingApp[2] pingRxSeq:count 147
attr interpolationmode none
attr title "ping rx seq, count"
scalar MeshLAN.host[1].pingApp[2] pingTxSeq:count 147
attr interpolationmode none
attr title "ping tx seq, count"
scalar MeshLAN.host[1].pingApp[2] numOutOfOrderArrivals:last nan
attr interpolationmode none
attr title "ping out-of-order arrivals, last"
scalar MeshLAN.host[1].pingApp[2] numLost:last nan
attr interpolationmode none
attr title "pings lost, last"
scalar MeshLAN.host[1].pingApp[2] rtt:mean 0.0045826531134483
attr interpolationmode none
attr title "ping round-trip time, mean"
attr unit s
scalar MeshLAN.host[1].pingApp[3] "Pings sent" 195
scalar MeshLAN.host[1].pingApp[3] "ping loss rate (%)" 0
scalar MeshLAN.host[1].pingApp[3] "ping out-of-order rate (%)" 0
scalar MeshLAN.host[1].pingApp[3] pingRxSeq:count 149
attr interpolationmode none
attr title "ping rx seq, count"
scalar MeshLAN.host[1].pingApp[3] pingTxSeq:count 149
attr interpolationmode none
attr title "ping tx seq, count"
scalar MeshLAN.host[1].pingApp[3] numOutOfOrderArrivals:last nan
attr interpolationmode none
attr title "ping out-of-order arrivals, last"
scalar MeshLAN.host[1].pingApp[3] numLost:last nan
attr interpolationmode none
attr title "pings lost, last"
scalar MeshLAN.host[1].pingApp[3] rtt:mean 0.0021270473569048
attr interpolationmode none
attr title "ping round-trip time, mean"
attr unit s
scalar MeshLAN.host[1].pingApp[4] "Pings sent" 196
scalar MeshLAN.host[1].pingApp[4] "ping loss rate (%)" 0
scalar MeshLAN.host[1].pingApp[4] "ping out-of-order rate (%)" 0
scalar MeshLAN.host[1].pingApp[4] pingRxSeq:count 150
attr interpolationmode none
attr title "ping rx seq, count"
scalar MeshLAN.host[1].pingApp[4] pingTxSeq:count 150
attr interpolationmode none
attr title "ping tx seq, count"
scalar MeshLAN.host[1].pingApp[4] numOutOfOrderArrivals:last nan
attr interpolationmode none
attr title "ping out-of-order arrivals, last"
scalar MeshLAN.host[1].pingApp[4] numLost:last nan
attr interpolationmode none
attr title "pings lost, last"
scalar MeshLAN.host[1].pingApp[4] rtt:mean 0.0046321693987047
attr interpolationmode none
attr title "ping round-trip time, mean"
attr unit s
scalar MeshLAN.host[1].pingApp[5] "Pings sent" 190
scalar MeshLAN.host[1].pingApp[5] "ping loss rate (%)" 0
scalar MeshLAN.host[1].pingApp[5] "ping out-of-order rate (%)" 0.52631578947368
scalar MeshLAN.host[1].pingApp[5] pingRxSeq:count 142
attr interpolationmode none
attr title "ping rx seq, count"
scalar MeshLAN.host[1].pingApp[5] pingTxSeq:count 142
attr interpolationmode none
attr title "ping tx seq, count"
scalar MeshLAN.host[1].pingApp[5] numOutOfOrderArrivals:last 1
attr interpolationmode none
attr title "ping out-of-order arrivals, last"
scalar MeshLAN.host[1].pingApp[5] numLost:last 0
attr interpolationmode none
attr title "pings lost, last"
scalar MeshLAN.host[1].pingApp[5] rtt:mean 0.0041314474583803
attr interpolationmode none
attr title "ping round-trip time, mean"
attr unit s
scalar MeshLAN.host[1].pingApp[6] "Pings sent" 191
scalar MeshLAN.host[1].pingApp[6] "ping loss rate (%)" 0
scalar MeshLAN.host[1].pingApp[6] "ping out-of-order rate (%)" 0
scalar MeshLAN.host[1].pingApp[6] pingRxSeq:count 142
attr interpolationmode none
attr title "ping rx seq, count"
scalar MeshLAN.host[1].pingApp[6] pingTxSeq:count 142
attr interpolationmode none
attr title "ping tx seq, count"
scalar MeshLAN.host[1].pingApp[6] numOutOfOrderArrivals:last nan
attr interpolationmode none
attr title "ping out-of-order arrivals, last"
scalar MeshLAN.host[1].pingApp[6] numLost:last nan
attr interpolationmode none
attr title "pings lost, last"
scalar MeshLAN.host[1].pingApp[6] rtt:mean 0.0046131890683169
attr interpolationmode none
attr title "ping round-trip time, mean"
attr unit s
scalar MeshLAN.host[1].pingApp[7] "Pings sent" 192
scalar MeshLAN.host[1].pingApp[7] "ping loss rate (%)" 0
scalar MeshLAN.host[1].pingApp[7] "ping out-of-order rate (%)" 0
scalar MeshLAN.host[1].pingApp[7] pingRxSeq:count 139
attr interpolationmode none
attr title "ping rx seq, count"
scalar MeshLAN.host[1].pingApp[7] pingTxSeq:count 139
attr interpolationmode none
attr title "ping tx seq, count"
scalar MeshLAN.host[1].pingApp[7] numOutOfOrderArrivals:last nan
attr interpolationmode none
attr title "ping out-of-order arrivals, last"
scalar MeshLAN.host[1].pingApp[7] numLost:last nan
attr interpolationmode none
attr title "pings lost, last"
scalar MeshLAN.host[1].pingApp[7] rtt:mean 0.0041089294590652
attr interpolationmode none
attr title "ping round-trip time, mean"
attr unit s
scalar MeshLAN.host[1].pingApp[8] "Pings sent" 196
scalar MeshLAN.host[1].pingApp[8] "ping loss rate (%)" 0
scalar MeshLAN.host[1].pingApp[8] "ping out-of-order rate (%)" 0
scalar MeshLAN.host[1].pingApp[8] pingRxSeq:count 153
attr interpolationmode none
attr title "ping rx seq, count"
scalar MeshLAN.host[1].pingApp[8] pingTxSeq:count 153
attr interpolationmode none
attr title "ping tx seq, count"
scalar MeshLAN.host[1].pingApp[8] numOutOfOrderArrivals:last nan
attr interpolationmode none
attr title "ping out-of-order arrivals, last"
scalar MeshLAN.host[1].pingApp[8] numLost:last nan
attr interpolationmode none
attr title "pings lost, last"
scalar MeshLAN.host[1].pingApp[8] rtt:mean 0.0021323730046358
attr interpolationmode none
attr title "ping round-trip time, mean"
attr unit s
scalar MeshLAN.host[1].pingApp[9] "Pings sent" 201
scalar MeshLAN.host[1].pingApp[9] "ping loss rate (%)" 0.49751243781095
scalar MeshLAN.host[1].pingApp[9] "ping out-of-order rate (%)" 0
scalar MeshLAN.host[1].pingApp[9] pingRxSeq:count 151
attr interpolationmode none
attr title "ping rx seq, count"
scalar MeshLAN.host[1].pingApp[9] pingTxSeq:count 152
attr interpolationmode none
attr title "ping tx seq, count"
scalar MeshLAN.host[1].pingApp[9] numOutOfOrderArrivals:last nan
attr interpolationmode none
attr title "ping out-of-order arrivals, last"
scalar MeshLAN.host[1].pingApp[9] numLost:last nan
attr interpolationmode none
attr title "pings lost, last"
scalar MeshLAN.host[1].pingApp[9] rtt:mean 0.0015047059851854
attr interpolationmode none
attr title "ping round-trip time, mean"
attr unit s
scalar MeshLAN.host[1].pingApp[10] "Pings sent" 202
scalar MeshLAN.host[1].pingApp[10] "ping loss rate (%)" 0
scalar MeshLAN.host[1].pingApp[10] "ping out-of-order rate (%)" 0
scalar MeshLAN.host[1].pingApp[10] pingRxSeq:count 156
attr interpolationmode none
attr title "ping rx seq, count"
scalar MeshLAN.host[1].pingApp[10] pingTxSeq:count 156
attr interpolationmode none
attr title "ping tx seq, count"
scalar MeshLAN.host[1].pingApp[10] numOutOfOrderArrivals:last nan
attr interpolationmode none
attr title "ping out-of-order arrivals, last"
scalar MeshLAN.host[1].pingApp[10] numLost:last nan
attr interpolationmode none
attr title "pings lost, last"
scalar MeshLAN.host[1].pingApp[10] rtt:mean 0.0020185441057226
attr interpolationmode none
attr title "ping round-trip time, mean"
attr unit s
scalar MeshLAN.host[1].pingApp[11] "Pings sent" 191
scalar MeshLAN.host[1].pingApp[11] "ping loss rate (%)" 0
scalar MeshLAN.host[1].pingApp[11] "ping out-of-order rate (%)" 0
scalar MeshLAN.host[1].pingApp[11] pingRxSeq:count 139
attr interpolationmode none
attr title "ping rx seq, count"
scalar MeshLAN.host[1].pingApp[11] pingTxSeq:count 139
attr interpolationmode none
attr title "ping tx seq, count"
scalar MeshLAN.host[1].pingApp[11] numOutOfOrderArrivals:last nan
attr interpolationmode none
attr title "ping out-of-order arrivals, last"
scalar MeshLAN.host[1].pingApp[11] numLost:last nan
attr interpolationmode none
attr title "pings lost, last"
scalar MeshLAN.host[1].pingApp[11] rtt:mean 0.0024675253756667
attr interpolationmode none
attr title "ping round-trip time, mean"
attr unit s
scalar MeshLAN.host[1].pingApp[12] "Pings sent" 190
scalar MeshLAN.host[1].pingApp[12] "ping loss rate (%)" 0
scalar MeshLAN.host[1].pingApp[12] "ping out-of-order rate (%)" 0
scalar MeshLAN.host[1].pingApp[12] pingRxSeq:count 146
attr interpolationmode none
attr title "ping rx seq, count"
scalar MeshLAN.host[1].pingApp[12] pingTxSeq:count 146
attr interpolationmode none
attr title "ping tx seq, count"
scalar MeshLAN.host[1].pingApp[12] numOutOfOrderArrivals:last nan
attr interpolationmode none
attr title "ping out-of-order arrivals, last"
scalar MeshLAN.host[1].pingApp[12] numLost:last nan
attr interpolationmode none
attr title "pings lost, last"
scalar MeshLAN.host[1].pingApp[12] rtt:mean 0.0022016866557329
attr interpolationmode none
attr title "ping round-trip time, mean"
attr unit s
scalar MeshLAN.host[1].pingApp[13] "Pings sent" 190
scalar MeshLAN.host[1].pingApp[13] "ping loss rate (%)" 0
scalar MeshLAN.host[1].pingApp[13] "ping out-of-order rate (%)" 0
scalar MeshLAN.host[1].pingApp[13] pingRxSeq:count 144
attr interpolationmode none
attr title "ping rx seq, count"
scalar MeshLAN.host[1].pingApp[13] pingTxSeq:count 144
attr interpolationmode none
attr title "ping tx seq, count"
scalar MeshLAN.host[1].pingApp[13] numOutOfOrderArrivals:last nan
attr interpolationmode none
attr title "ping out-of-order arrivals, last"
scalar MeshLAN.host[1].pingApp[13] numLost:last nan
attr interpolationmode none
attr title "pings lost, last"
scalar MeshLAN.host[1].pingApp[13] rtt:mean 0.0029308239555944
attr interpolationmode none
attr title "ping round-trip time, mean"
attr unit s
scalar MeshLAN.host[1].pingApp[14] "Pings sent" 196
scalar MeshLAN.host[1].pingApp[14] "ping loss rate (%)" 0
scalar MeshLAN.host[1].pingApp[14] "ping out-of-order rate (%)" 0
scalar MeshLAN.host[1].pingApp[14] pingRxSeq:count 152
attr interpolationmode none
attr title "ping rx seq, count"
scalar MeshLAN.host[1].pingApp[14] pingTxSeq:count 152
attr interpolationmode none
attr title "ping tx seq, count"
scalar MeshLAN.host[1].pingApp[14] numOutOfOrderArrivals:last nan
attr interpolationmode none
attr title "ping out-of-order arrivals, last"
scalar MeshLAN.host[1].pingApp[14] numLost:last nan
attr interpolationmode none
attr title "pings lost, last"
scalar MeshLAN.host[1].pingApp[14] rtt:mean 0.00444156266532
attr interpolationmode none
attr title "ping round-trip time, mean"
attr unit s
scalar MeshLAN.host[1].pingApp[15] "Pings sent" 187
scalar MeshLAN.host[1].pingApp[15] "ping loss rate (%)" 0
scalar MeshLAN.host[1].pingApp[15] "ping out-of-order rate (%)" 0
scalar MeshLAN.host[1].pingApp[15] pingRxSeq:count 145
attr interpolationmode none
attr title "ping rx seq, count"
scalar MeshLAN.host[1].pingApp[15] pingTxSeq:count 145
attr interpolationmode none
attr title "ping tx seq, count"
scalar MeshLAN.host[1].pingApp[15] numOutOfOrderArrivals:last nan
attr interpolationmode none
attr title "ping out-of-order arrivals, last"
scalar MeshLAN.host[1].pingApp[15] numLost:last nan
attr interpolationmode none
attr title "pings lost, last"
scalar MeshLAN.host[1].pingApp[15] rtt:mean 0.0014773025609792
attr interpolationmode none
attr title "ping round-trip time, mean"
attr unit s
scalar MeshLAN.host[1].pingApp[16] "Pings sent" 184
scalar MeshLAN.host[1].pingApp[16] "ping loss rate (%)" 0
scalar MeshLAN.host[1].pingApp[16] "ping out-of-order rate (%)" 0
scalar MeshLAN.host[1].pingApp[16] pingRxSeq:count 140
attr interpolationmode none
attr title "ping rx seq, count"
scalar MeshLAN.host[1].pingApp[16] pingTxSeq:count 140
attr interpolationmode none
attr title "ping tx seq, count"
scalar MeshLAN.host[1].pingApp[16] numOutOfOrderArrivals:last nan
attr interpolationmode none
attr title "ping out-of-order arrivals, last"
scalar MeshLAN.host[1].pingApp[16] numLost:last nan
attr interpolationmode none
attr title "pings lost, last"
scalar MeshLAN.host[1].pingApp[16] rtt:mean 0.0038654062363597
attr interpolationmode none
attr title "ping round-trip time, mean"
attr unit s
scalar MeshLAN.host[1].pingApp[17] "Pings sent" 192
scalar MeshLAN.host[1].pingApp[17] "ping loss rate (%)" 0
scalar MeshLAN.host[1].pingApp[17] "ping out-of-order rate (%)" 0
scalar MeshLAN.host[1].pingApp[17] pingRxSeq:count 145
attr interpolationmode none
attr title "ping rx seq, count"
scalar MeshLAN.host[1].pingApp[17] pingTxSeq:count 145
attr interpolationmode none
attr title "ping tx seq, count"
scalar MeshLAN.host[1].pingApp[17] numOutOfOrderArrivals:last nan
attr interpolationmode none
attr title "ping out-of-order arrivals, last"
scalar MeshLAN.host[1].pingApp[17] numLost:last nan
attr interpolationmode none
attr title "pings lost, last"
scalar MeshLAN.host[1].pingApp[17] rtt:mean 0.0026872301327847
attr interpolationmode none
attr title "ping round-trip time, mean"
attr unit s
scalar MeshLAN.host[1].pingApp[18] "Pings sent" 199
scalar MeshLAN.host[1].pingApp[18] "ping loss rate (%)" 0
scalar MeshLAN.host[1].pingApp[18] "ping out-of-order rate (%)" 0
scalar MeshLAN.host[1].pingApp[18] pingRxSeq:count 153
attr interpolationmode none
attr title "ping rx seq, count"
scalar MeshLAN.host[1].pingApp[18] pingTxSeq:count 153
attr interpolationmode none
attr title "ping tx seq, count"
scalar MeshLAN.host[1].pingApp[18] numOutOfOrderArrivals:last nan
attr interpolationmode none
attr title "ping out-of-order arrivals, last"
scalar MeshLAN.host[1].pingApp[18] numLost:last nan
attr interpolationmode none
attr title "pings lost, last"
scalar MeshLAN.host[1].pingApp[18] rtt:mean 0.0026321783868344
attr interpolationmode none
attr title "ping round-trip time, mean"
attr unit s
scalar MeshLAN.host[1].pingApp[19] "Pings sent" 201
scalar MeshLAN.host[1].pingApp[19] "ping loss rate (%)" 0
scalar MeshLAN.host[1].pingApp[19] "ping out-of-order rate (%)" 0
scalar MeshLAN.host[1].pingApp[19] pingRxSeq:count 151
attr interpolationmode none
attr title "ping rx seq, count"
scalar MeshLAN.host[1].pingApp[19] pingTxSeq:count 151
attr interpolationmode none
attr title "ping tx seq, count"
scalar MeshLAN.host[1].pingApp[19] numOutOfOrderArrivals:last nan
attr interpolationmode none
attr title "ping out-of-order arrivals, last"
scalar MeshLAN.host[1].pingApp[19] numLost:last nan
attr interpolationmode none
attr title "pings lost, last"
scalar MeshLAN.host[1].pingApp[19] rtt:mean 0.0038838678462252
attr interpolationmode none
attr title "ping round-trip time, mean"
attr unit s
scalar MeshLAN.host[1].pingApp[20] "Pings sent" 194
scalar MeshLAN.host[1].pingApp[20] "ping loss rate (%)" 0
scalar MeshLAN.host[1].pingApp[20] "ping out-of-order rate (%)" 0
scalar MeshLAN.host[1].pingApp[20] pingRxSeq:count 151
attr interpolationmode none
attr title "ping rx seq, count"
scalar MeshLAN.host[1].pingApp[20] pingTxSeq:count 151
attr interpolationmode none
attr title "ping tx seq, count"
scalar MeshLAN.host[1].pingApp[20] numOutOfOrderArrivals:last nan
attr interpolationmode none
attr title "ping out-of-order arrivals, last"
scalar MeshLAN.host[1].pingApp[20] numLost:last nan
attr interpolationmode none
attr title "pings lost, last"
scalar MeshLAN.host[1].pingApp[20] rtt:mean 0.0039111684661133
attr interpolationmode none
attr title "ping round-trip time, mean"
attr unit s
scalar MeshLAN.host[1].pingApp[21] "Pings sent" 190
scalar MeshLAN.host[1].pingApp[21] "ping loss rate (%)" 0
scalar MeshLAN.host[1].pingApp[21] "ping out-of-order rate (%)" 0
scalar MeshLAN.host[1].pingApp[21] pingRxSeq:count 141
attr interpolationmode none
attr title "ping rx seq, count"
scalar MeshLAN.host[1].pingApp[21] pingTxSeq:count 141
attr interpolationmode none
attr title "ping tx seq, count"
scalar MeshLAN.host[1].pingApp[21] numOutOfOrderArrivals:last nan
attr interpolationmode none
attr title "ping out-of-order arrivals, last"
scalar MeshLAN.host[1].pingApp[21] numLost:last nan
attr interpolationmode none
attr title "pings lost, last"
scalar MeshLAN.host[1].pingApp[21] rtt:mean 0.0024629328321143
attr interpolationmode none
attr title "ping round-trip time, mean"
attr unit s
scalar MeshLAN.host[1].pingApp[22] "Pings sent" 196
scalar MeshLAN.host[1].pingApp[22] "ping loss rate (%)" 0
scalar MeshLAN.host[1].pingApp[22] "ping out-of-order rate (%)" 0
scalar MeshLAN.host[1].pingApp[22] pingRxSeq:count 147
attr interpolationmode none
attr title "ping rx seq, count"
scalar MeshLAN.host[1].pingApp[22] pingTxSeq:count 147
attr interpolationmode none
attr title "ping tx seq, count"
scalar MeshLAN.host[1].pingApp[22] numOutOfOrderArrivals:last nan
attr interpolationmode none
attr title "ping out-of-order arrivals, last"
scalar MeshLAN.host[1].pingApp[22] numLost:last nan
attr interpolationmode none
attr title "pings lost, last"
scalar MeshLAN.host[1].pingApp[22] rtt:mean 0.0030736283075556
attr interpolationmode none
attr title "ping round-trip time, mean"
attr unit s
scalar MeshLAN.host[1].pingApp[23] "Pings sent" 194
scalar MeshLAN.host[1].pingApp[23] "ping loss rate (%)" 0
scalar MeshLAN.host[1].pingApp[23] "ping out-of-order rate (%)" 0
scalar MeshLAN.host[1].pingApp[23] pingRxSeq:count 147
attr interpolationmode none
attr title "ping rx seq, count"
scalar MeshLAN.host[1].pingApp[23] pingTxSeq:count 147
attr interpolationmode none
attr title "ping tx seq, count"
scalar MeshLAN.host[1].pingApp[23] numOutOfOrderArrivals:last nan
attr interpolationmode none
attr title "ping out-of-order arrivals, last"
scalar MeshLAN.host[1].pingApp[23] numLost:last nan
attr interpolationmode none
attr title "pings lost, last"
scalar MeshLAN.host[1].pingApp[23] rtt:mean 0.0040412077464082
attr interpolationmode none
attr title "ping round-trip time, mean"
attr unit s
scalar MeshLAN.host[1].pingApp[24] "Pings sent" 191
scalar MeshLAN.host[1].pingApp[24] "ping loss rate (%)" 0
scalar MeshLAN.host[1].pingApp[24] "ping out-of-order rate (%)" 0
scalar MeshLAN.host[1].pingApp[24] pingRxSeq:count 143
attr interpolationmode none
attr title "ping rx seq, count"
scalar MeshLAN.host[1].pingApp[24] pingTxSeq:count 143
attr interpolationmode none
attr title "ping tx seq, count"
scalar MeshLAN.host[1].pingApp[24] numOutOfOrderArrivals:last nan
attr interpolationmode none
attr title "ping out-of-order arrivals, last"
scalar MeshLAN.host[1].pingApp[24] numLost:last nan
attr interpolationmode none
attr title "pings lost, last"
scalar MeshLAN.host[1].pingApp[24] rtt:mean 0.0037498633406028
attr interpolationmode none
attr title "ping round-trip time, mean"
attr unit s
scalar MeshLAN.host[1].pingApp[25] "Pings sent" 175
scalar MeshLAN.host[1].pingApp[25] "ping loss rate (%)" 0
scalar MeshLAN.host[1].pingApp[25] "ping out-of-order rate (%)" 0
scalar MeshLAN.host[1].pingApp[25] pingRxSeq:count 136
attr interpolationmode none
attr title "ping rx seq, count"
scalar MeshLAN.host[1].pingApp[25] pingTxSeq:count 136
attr interpolationmode none
attr title "ping tx seq, count"
scalar MeshLAN.host[1].pingApp[25] numOutOfOrderArrivals:last nan
attr interpolationmode none
attr title "ping out-of-order arrivals, last"
scalar MeshLAN.host[1].pingApp[25] numLost:last nan
attr interpolationmode none
attr title "pings lost, last"
scalar MeshLAN.host[1].pingApp[25] rtt:mean 0.0015259290615896
attr interpolationmode none
attr title "ping round-trip time, mean"
attr unit s
scalar MeshLAN.host[1].pingApp[26] "Pings sent" 198
scalar MeshLAN.host[1].pingApp[26] "ping loss rate (%)" 0
scalar MeshLAN.host[1].pingApp[26] "ping out-of-order rate (%)" 0
scalar MeshLAN.host[1].pingApp[26] pingRxSeq:count 151
attr interpolationmode none
attr title "ping rx seq, count"
scalar MeshLAN.host[1].pingApp[26] pingTxSeq:count 151
attr interpolationmode none
attr title "ping tx seq, count"
scalar MeshLAN.host[1].pingApp[26] numOutOfOrderArrivals:last nan
attr interpolationmode none
attr title "ping out-of-order arrivals, last"
scalar MeshLAN.host[1].pingApp[26] numLost:last nan
attr interpolationmode none
attr title "pings lost, last"
scalar MeshLAN.host[1].pingApp[26] rtt:mean 0.00279413846892
attr interpolationmode none
attr title "ping round-trip time, mean"
attr unit s
scalar MeshLAN.host[1].pingApp[27] "Pings sent" 192
scalar MeshLAN.host[1].pingApp[27] "ping loss rate (%)" 0
scalar MeshLAN.host[1].pingApp[27] "ping out-of-order rate (%)" 0
scalar MeshLAN.host[1].pingApp[27] pingRxSeq:count 142
attr interpolationmode none
attr title "ping rx seq, count"
scalar MeshLAN.host[1].pingApp[27] pingTxSeq:count 142
attr interpolationmode none
attr title "ping tx seq, count"
scalar MeshLAN.host[1].pingApp[27] numOutOfOrderArrivals:last nan
attr interpolationmode none
attr title "ping out-of-order arrivals, last"
scalar MeshLAN.host[1].pingApp[27] numLost:last nan
attr interpolationmode none
attr title "pings lost, last"
scalar MeshLAN.host[1].pingApp[27] rtt:mean 0.0046152607950567
attr interpolationmode none
attr title "ping round-trip time, mean"
attr unit s
scalar MeshLAN.host[2].networkLayer.arp sentReply:count 0
attr title "ARP replies sent, count"
scalar MeshLAN.host[2].networkLayer.arp sentReq:count 0
attr title "ARP request sent, count"
scalar MeshLAN.host[2].networkLayer.arp failedARPResolution:count 0
attr title "ARP failed resolutions, count"
scalar MeshLAN.host[2].networkLayer.arp completedARPResolution:count 0
attr title "ARP completed resolutions, count"
scalar MeshLAN.host[2].networkLayer.arp initiatedARPResolution:count 0
attr title "ARP initiated resolutions, count"
scalar MeshLAN.host[2].lo0.lo droppedPkBitError:count 0
attr interpolationmode none
attr source dropPkBitError
attr title "packets dropped/bit error, count"
scalar MeshLAN.host[2].lo0.lo droppedPkBitError:sum(packetBytes) 0
attr interpolationmode none
attr source dropPkBitError
attr title "packets dropped/bit error, sum(packetBytes)"
scalar MeshLAN.host[2].lo0.lo rcvdPkFromHL:count 100
attr interpolationmode none
attr source packetReceivedFromUpper
attr title "packets received from higher layer, count"
scalar MeshLAN.host[2].lo0.lo rcvdPkFromHL:sum(packetBytes) 67496
attr interpolationmode none
attr source packetReceivedFromUpper
attr title "packets received from higher layer, sum(packetBytes)"
scalar MeshLAN.host[2].lo0.lo passedUpPk:count 100
attr interpolationmode none
attr source packetSentToUpper
attr title "packets passed to higher layer, count"
scalar MeshLAN.host[2].lo0.lo passedUpPk:sum(packetBytes) 67496
attr interpolationmode none
attr source packetSentToUpper
attr title "packets passed to higher layer, sum(packetBytes)"
scalar MeshLAN.host[2].eth[0].queue.pauseQueue queueLength:max nan
attr interpolationmode sample-hold
attr title "queue length, max"
scalar MeshLAN.host[2].eth[0].queue.pauseQueue queueLength:timeavg nan
attr interpolationmode sample-hold
attr title "queue length, timeavg"
statistic MeshLAN.host[2].eth[0].queue.pauseQueue queueingTime:histogram
field count 0
field mean nan
field stddev nan
field min nan
field max nan
field sum 0
field sqrsum 0
attr interpolationmode none
attr title "queueing time, histogram"
bin	-inf	0
bin	-0.5	0
bin	-0.46666666666667	0
bin	-0.43333333333333	0
bin	-0.4	0
bin	-0.36666666666667	0
bin	-0.33333333333333	0
bin	-0.3	0
bin	-0.26666666666667	0
bin	-0.23333333333333	0
bin	-0.2	0
bin	-0.16666666666667	0
bin	-0.13333333333333	0
bin	-0.1	0
bin	-0.066666666666667	0
bin	-0.033333333333333	0
bin	0	0
bin	0.033333333333333	0
bin	0.066666666666667	0
bin	0.1	0
bin	0.13333333333333	0
bin	0.16666666666667	0
bin	0.2	0
bin	0.23333333333333	0
bin	0.26666666666667	0
bin	0.3	0
bin	0.33333333333333	0
bin	0.36666666666667	0
bin	0.4	0
bin	0.43333333333333	0
bin	0.46666666666667	0
bin	0.5	0
scalar MeshLAN.host[2].eth[0].queue.pauseQueue dropPk:count 0
attr interpolationmode none
attr source dropPkByQueue
attr title "dropped packets, count"
scalar MeshLAN.host[2].eth[0].queue.pauseQueue dropPk:sum(packetBytes) 0
attr interpolationmode none
attr source dropPkByQueue
attr title "dropped packets, sum(packetBytes)"
scalar MeshLAN.host[2].eth[0].queue.pauseQueue rcvdPk:count 0
attr interpolationmode none
attr title "received packets, count"
scalar MeshLAN.host[2].eth[0].queue.pauseQueue rcvdPk:sum(packetBytes) 0
attr interpolationmode none
attr title "received packets, sum(packetBytes)"
scalar MeshLAN.host[2].eth[0].queue.dataQueue queueLength:max 7
attr interpolationmode sample-hold
attr title "queue length, max"
scalar MeshLAN.host[2].eth[0].queue.dataQueue queueLength:timeavg 0.1964936985334
attr interpolationmode sample-hold
attr title "queue length, timeavg"
statistic MeshLAN.host[2].eth[0].queue.dataQueue queueingTime:histogram
field count 6594
field mean 0.00044680931955974
field stddev 0.00055095381544385
field min 0
field max 0.003788709934
field sum 2.9462606531769
field sqrsum 0.0033177225715085
attr interpolationmode none
attr title "queueing time, histogram"
bin	-inf	0
bin	-0.0008994337595	0
bin	-0.00077950925823333	0
bin	-0.00065958475696667	0
bin	-0.0005396602557	0
bin	-0.00041973575443333	0
bin	-0.00029981125316667	0
bin	-0.0001798867519	0
bin	-5.9962250633333e-005	3360
bin	5.9962250633333e-005	119
bin	0.0001798867519	121
bin	0.00029981125316667	111
bin	0.00041973575443333	123
bin	0.0005396602557	98
bin	0.00065958475696667	98
bin	0.00077950925823333	1759
bin	0.0008994337595	120
bin	0.0010193582607667	106
bin	0.0011392827620333	104
bin	0.0012592072633	100
bin	0.0013791317645667	66
bin	0.0014990562658333	57
bin	0.0016189807671	58
bin	0.0017389052683667	49
bin	0.0018588297696333	37
bin	0.0019787542709	30
bin	0.0020986787721667	19
bin	0.0022186032734333	15
bin	0.0023385277747	9
bin	0.0024584522759667	7
bin	0.0025783767772333	8
bin	0.0026983012785	20
scalar MeshLAN.host[2].eth[0].queue.dataQueue dropPk:count 0
attr interpolationmode none
attr source dropPkByQueue
attr title "dropped packets, count"
scalar MeshLAN.host[2].eth[0].queue.dataQueue dropPk:sum(packetBytes) 0
attr interpolationmode none
attr source dropPkByQueue
attr title "dropped packets, sum(packetBytes)"
scalar MeshLAN.host[2].eth[0].queue.dataQueue rcvdPk:count 6595
attr interpolationmode none
attr title "received packets, count"
scalar MeshLAN.host[2].eth[0].queue.dataQueue rcvdPk:sum(packetBytes) 4598492
attr interpolationmode none
attr title "received packets, sum(packetBytes)"
scalar MeshLAN.host[2].eth[0].mac "simulated time" 20
scalar MeshLAN.host[2].eth[0].mac full-duplex 1
scalar MeshLAN.host[2].eth[0].mac "frames/sec sent" 436.25
scalar MeshLAN.host[2].eth[0].mac "frames/sec rcvd" 436.1
scalar MeshLAN.host[2].eth[0].mac "bits/sec sent" 2430363.2
scalar MeshLAN.host[2].eth[0].mac "bits/sec rcvd" 2429428.8
scalar MeshLAN.host[2].eth[0].mac "rx channel idle (%)" 75.426608
scalar MeshLAN.host[2].eth[0].mac "rx channel utilization (%)" 24.573392
scalar MeshLAN.host[2].eth[0].mac rxPkFromHL:count 6594
attr interpolationmode none
attr source rxPkFromHL
attr title "packet bytes from higher layer, count"
scalar MeshLAN.host[2].eth[0].mac rxPkFromHL:sum(packetBytes) 4598395
attr interpolationmode none
attr source rxPkFromHL
attr title "packet bytes from higher layer, sum(packetBytes)"
scalar MeshLAN.host[2].eth[0].mac rxPausePkUnits:count 0
attr interpolationmode none
attr title "pause units received, count"
scalar MeshLAN.host[2].eth[0].mac rxPausePkUnits:sum 0
attr interpolationmode none
attr title "pause units received, sum"
scalar MeshLAN.host[2].eth[0].mac txPausePkUnits:count 0
attr interpolationmode none
attr title "pause units sent, count"
scalar MeshLAN.host[2].eth[0].mac txPausePkUnits:sum 0
attr interpolationmode none
attr title "pause units sent, sum"
scalar MeshLAN.host[2].eth[0].mac txPk:count 6593
attr interpolationmode none
attr source txPk
attr title "packets transmitted, count"
scalar MeshLAN.host[2].eth[0].mac txPk:sum(packetBytes) 4597357
attr interpolationmode none
attr source txPk
attr title "packets transmitted, sum(packetBytes)"
scalar MeshLAN.host[2].eth[0].mac droppedPkNotForUs:count 0
attr interpolationmode none
attr source dropPkNotForUs
attr title "packets dropped/not for us, count"
scalar MeshLAN.host[2].eth[0].mac droppedPkNotForUs:sum(packetBytes) 0
attr interpolationmode none
attr source dropPkNotForUs
attr title "packets dropped/not for us, sum(packetBytes)"
scalar MeshLAN.host[2].eth[0].mac droppedPkBitError:count 0
attr interpolationmode none
attr source dropPkBitError
attr title "packets dropped/bit error, count"
scalar MeshLAN.host[2].eth[0].mac droppedPkBitError:sum(packetBytes) 0
attr interpolationmode none
attr source dropPkBitError
attr title "packets dropped/bit error, sum(packetBytes)"
scalar MeshLAN.host[2].eth[0].mac droppedPkIfaceDown:count 0
attr interpolationmode none
attr source dropPkIfaceDown
attr title "packets dropped/interface down, count"
scalar MeshLAN.host[2].eth[0].mac droppedPkIfaceDown:sum(packetBytes) 0
attr interpolationmode none
attr source dropPkIfaceDown
attr title "packets dropped/interface down, sum(packetBytes)"
scalar MeshLAN.host[2].eth[0].mac rxPkOk:count 6593
attr interpolationmode none
attr source rxPkOk
attr title "packets received OK, count"
scalar MeshLAN.host[2].eth[0].mac rxPkOk:sum(packetBytes) 4597357
attr interpolationmode none
attr source rxPkOk
attr title "packets received OK, sum(packetBytes)"
scalar MeshLAN.host[2].eth[0].mac passedUpPk:count 6593
attr interpolationmode none
attr source packetSentToUpper
attr title "packets passed to higher layer, count"
scalar MeshLAN.host[2].eth[0].mac passedUpPk:sum(packetBytes) 4597357
attr interpolationmode none
attr source packetSentToUpper
attr title "packets passed to higher layer, sum(packetBytes)"
scalar MeshLAN.host[2].eth[0].encap pauseSent:count 0
attr title "pause sent, count"
scalar MeshLAN.host[2].eth[0].encap pauseSent:sum 0
attr title "pause sent, sum"
scalar MeshLAN.host[2].eth[0].encap decapPk:count 6593
attr interpolationmode none
attr source decapPk
attr title "packets decapsulated, count"
scalar MeshLAN.host[2].eth[0].encap decapPk:sum(packetBytes) 4478543
attr interpolationmode none
attr source decapPk
attr title "packets decapsulated, sum(packetBytes)"
scalar MeshLAN.host[2].eth[0].encap encapPk:count 6595
attr interpolationmode none
attr source encapPk
attr title "packets encapsulated, count"
scalar MeshLAN.host[2].eth[0].encap encapPk:sum(packetBytes) 4479642
attr interpolationmode none
attr source encapPk
attr title "packets encapsulated, sum(packetBytes)"
scalar MeshLAN.host[2].pingApp[0] "Pings sent" 188
scalar MeshLAN.host[2].pingApp[0] "ping loss rate (%)" 0
scalar MeshLAN.host[2].pingApp[0] "ping out-of-order rate (%)" 0
scalar MeshLAN.host[2].pingApp[0] pingRxSeq:count 140
attr interpolationmode none
attr title "ping rx seq, count"
scalar MeshLAN.host[2].pingApp[0] pingTxSeq:count 140
attr interpolationmode none
attr title "ping tx seq, count"
scalar MeshLAN.host[2].pingApp[0] numOutOfOrderArrivals:last nan
attr interpolationmode none
attr title "ping out-of-order arrivals, last"
scalar MeshLAN.host[2].pingApp[0] numLost:last nan
attr interpolationmode none
attr title "pings lost, last"
scalar MeshLAN.host[2].pingApp[0] rtt:mean 0.0040356073748786
attr interpolationmode none
attr title "ping round-trip time, mean"
attr unit s
scalar MeshLAN.host[2].pingApp[1] "Pings sent" 182
scalar MeshLAN.host[2].pingApp[1] "ping loss rate (%)" 0
scalar MeshLAN.host[2].pingApp[1] "ping out-of-order rate (%)" 0
scalar MeshLAN.host[2].pingApp[1] pingRxSeq:count 139
attr interpolationmode none
attr title "ping rx seq, count"
scalar MeshLAN.host[2].pingApp[1] pingTxSeq:count 139
attr interpolationmode none
attr title "ping tx seq, count"
scalar MeshLAN.host[2].pingApp[1] numOutOfOrderArrivals:last nan
attr interpolationmode none
attr title "ping out-of-order arrivals, last"
scalar MeshLAN.host[2].pingApp[1] numLost:last nan
attr interpolationmode none
attr title "pings lost, last"
scalar MeshLAN.host[2].pingApp[1] rtt:mean 0.0041492407993723
attr interpolationmode none
attr title "ping round-trip time, mean"
attr unit s
scalar MeshLAN.host[2].pingApp[2] "Pings sent" 182
scalar MeshLAN.host[2].pingApp[2] "ping loss rate (%)" 0
scalar MeshLAN.host[2].pingApp[2] "ping out-of-order rate (%)" 0
scalar MeshLAN.host[2].pingApp[2] pingRxSeq:count 136
attr interpolationmode none
attr title "ping rx seq, count"
scalar MeshLAN.host[2].pingApp[2] pingTxSeq:count 136
attr interpolationmode none
attr title "ping tx seq, count"
scalar MeshLAN.host[2].pingApp[2] numOutOfOrderArrivals:last nan
attr interpolationmode none
attr title "ping out-of-order arrivals, last"
scalar MeshLAN.host[2].pingApp[2] numLost:last nan
attr interpolationmode none
attr title "pings lost, last"
scalar MeshLAN.host[2].pingApp[2] rtt:mean 0.0012833936229044
attr interpolationmode none
attr title "ping round-trip time, mean"
attr unit s
scalar MeshLAN.host[2].pingApp[3] "Pings sent" 202
scalar MeshLAN.host[2].pingApp[3] "ping loss rate (%)" 0.4950495049505
scalar MeshLAN.host[2].pingApp[3] "ping out-of-order rate (%)" 0
scalar MeshLAN.host[2].pingApp[3] pingRxSeq:count 151
attr interpolationmode none
attr title "ping rx seq, count"
scalar MeshLAN.host[2].pingApp[3] pingTxSeq:count 151
attr interpolationmode none
attr title "ping tx seq, count"
scalar MeshLAN.host[2].pingApp[3] numOutOfOrderArrivals:last nan
attr interpolationmode none
attr title "ping out-of-order arrivals, last"
scalar MeshLAN.host[2].pingApp[3] numLost:last nan
attr interpolationmode none
attr title "pings lost, last"
scalar MeshLAN.host[2].pingApp[3] rtt:mean 0.0035033840125333
attr interpolationmode none
attr title "ping round-trip time, mean"
attr unit s
scalar MeshLAN.host[2].pingApp[4] "Pings sent" 189
scalar MeshLAN.host[2].pingApp[4] "ping loss rate (%)" 0
scalar MeshLAN.host[2].pingApp[4] "ping out-of-order rate (%)" 0
scalar MeshLAN.host[2].pingApp[4] pingRxSeq:count 149
attr interpolationmode none
attr title "ping rx seq, count"
scalar MeshLAN.host[2].pingApp[4] pingTxSeq:count 149
attr interpolationmode none
attr title "ping tx seq, count"
scalar MeshLAN.host[2].pingApp[4] numOutOfOrderArrivals:last nan
attr interpolationmode none
attr title "ping out-of-order arrivals, last"
scalar MeshLAN.host[2].pingApp[4] numLost:last nan
attr interpolationmode none
attr title "pings lost, last"
scalar MeshLAN.host[2].pingApp[4] rtt:mean 0.0033323858731497
attr interpolationmode none
attr title "ping round-trip time, mean"
attr unit s
scalar MeshLAN.host[2].pingApp[5] "Pings sent" 198
scalar MeshLAN.host[2].pingApp[5] "ping loss rate (%)" 0
scalar MeshLAN.host[2].pingApp[5] "ping out-of-order rate (%)" 0
scalar MeshLAN.host[2].pingApp[5] pingRxSeq:count 147
attr interpolationmode none
attr title "ping rx seq, count"
scalar MeshLAN.host[2].pingApp[5] pingTxSeq:count 147
attr interpolationmode none
attr title "ping tx seq, count"
scalar MeshLAN.host[2].pingApp[5] numOutOfOrderArrivals:last nan
attr interpolationmode none
attr title "ping out-of-order arrivals, last"
scalar MeshLAN.host[2].pingApp[5] numLost:last nan
attr interpolationmode none
attr title "pings lost, last"
scalar MeshLAN.host[2].pingApp[5] rtt:mean 0.0031848345235034
attr interpolationmode none
attr title "ping round-trip time, mean"
attr unit s
scalar MeshLAN.host[2].pingApp[6] "Pings sent" 192
scalar MeshLAN.host[2].pingApp[6] "ping loss rate (%)" 0
scalar MeshLAN.host[2].pingApp[6] "ping out-of-order rate (%)" 0
scalar MeshLAN.host[2].pingApp[6] pingRxSeq:count 146
attr interpolationmode none
attr title "ping rx seq, count"
scalar MeshLAN.host[2].pingApp[6] pingTxSeq:count 146
attr interpolationmode none
attr title "ping tx seq, count"
scalar MeshLAN.host[2].pingApp[6] numOutOfOrderArrivals:last nan
attr interpolationmode none
attr title "ping out-of-order arrivals, last"
scalar MeshLAN.host[2].pingApp[6] numLost:last nan
attr interpolationmode none
attr title "pings lost, last"
scalar MeshLAN.host[2].pingApp[6] rtt:mean 0.0049771085762069
attr interpolationmode none
attr title "ping round-trip time, mean"
attr unit s
scalar MeshLAN.host[2].pingApp[7] "Pings sent" 193
scalar MeshLAN.host[2].pingApp[7] "ping loss rate (%)" 0.51813471502591
scalar MeshLAN.host[2].pingApp[7] "ping out-of-order rate (%)" 0
scalar MeshLAN.host[2].pingApp[7] pingRxSeq:count 144
attr interpolationmode none
attr title "ping rx seq, count"
scalar MeshLAN.host[2].pingApp[7] pingTxSeq:count 145
attr interpolationmode none
attr title "ping tx seq, count"
scalar MeshLAN.host[2].pingApp[7] numOutOfOrderArrivals:last nan
attr interpolationmode none
attr title "ping out-of-order arrivals, last"
scalar MeshLAN.host[2].pingApp[7] numLost:last nan
attr interpolationmode none
attr title "pings lost, last"
scalar MeshLAN.host[2].pingApp[7] rtt:mean 0.0037774126814476
[...]
attr title "received packets, count"
scalar MeshLAN.router[9].eth[7].queue.dataQueue rcvdPk:sum(packetBytes) 881889
attr interpolationmode none
attr title "received packets, sum(packetBytes)"
scalar MeshLAN.router[9].eth[7].mac "simulated time" 20
scalar MeshLAN.router[9].eth[7].mac full-duplex 1
scalar MeshLAN.router[9].eth[7].mac "frames/sec sent" 82.3
scalar MeshLAN.router[9].eth[7].mac "frames/sec rcvd" 82.3
scalar MeshLAN.router[9].eth[7].mac "bits/sec sent" 465137.6
scalar MeshLAN.router[9].eth[7].mac "bits/sec rcvd" 465137.6
scalar MeshLAN.router[9].eth[7].mac "rx channel idle (%)" 95.295952
scalar MeshLAN.router[9].eth[7].mac "rx channel utilization (%)" 4.704048
scalar MeshLAN.router[9].eth[7].mac rxPkFromHL:count 1246
attr interpolationmode none
attr source rxPkFromHL
attr title "packet bytes from higher layer, count"
scalar MeshLAN.router[9].eth[7].mac rxPkFromHL:sum(packetBytes) 881889
attr interpolationmode none
attr source rxPkFromHL
attr title "packet bytes from higher layer, sum(packetBytes)"
scalar MeshLAN.router[9].eth[7].mac rxPausePkUnits:count 0
attr interpolationmode none
attr title "pause units received, count"
scalar MeshLAN.router[9].eth[7].mac rxPausePkUnits:sum 0
attr interpolationmode none
attr title "pause units received, sum"
scalar MeshLAN.router[9].eth[7].mac txPausePkUnits:count 0
attr interpolationmode none
attr title "pause units sent, count"
scalar MeshLAN.router[9].eth[7].mac txPausePkUnits:sum 0
attr interpolationmode none
attr title "pause units sent, sum"
scalar MeshLAN.router[9].eth[7].mac txPk:count 1246
attr interpolationmode none
attr source txPk
attr title "packets transmitted, count"
scalar MeshLAN.router[9].eth[7].mac txPk:sum(packetBytes) 881889
attr interpolationmode none
attr source txPk
attr title "packets transmitted, sum(packetBytes)"
scalar MeshLAN.router[9].eth[7].mac droppedPkNotForUs:count 0
attr interpolationmode none
attr source dropPkNotForUs
attr title "packets dropped/not for us, count"
scalar MeshLAN.router[9].eth[7].mac droppedPkNotForUs:sum(packetBytes) 0
attr interpolationmode none
attr source dropPkNotForUs
attr title "packets dropped/not for us, sum(packetBytes)"
scalar MeshLAN.router[9].eth[7].mac droppedPkBitError:count 0
attr interpolationmode none
attr source dropPkBitError
attr title "packets dropped/bit error, count"
scalar MeshLAN.router[9].eth[7].mac droppedPkBitError:sum(packetBytes) 0
attr interpolationmode none
attr source dropPkBitError
attr title "packets dropped/bit error, sum(packetBytes)"
scalar MeshLAN.router[9].eth[7].mac droppedPkIfaceDown:count 0
attr interpolationmode none
attr source dropPkIfaceDown
attr title "packets dropped/interface down, count"
scalar MeshLAN.router[9].eth[7].mac droppedPkIfaceDown:sum(packetBytes) 0
attr interpolationmode none
attr source dropPkIfaceDown
attr title "packets dropped/interface down, sum(packetBytes)"
scalar MeshLAN.router[9].eth[7].mac rxPkOk:count 1246
attr interpolationmode none
attr source rxPkOk
attr title "packets received OK, count"
scalar MeshLAN.router[9].eth[7].mac rxPkOk:sum(packetBytes) 881889
attr interpolationmode none
attr source rxPkOk
attr title "packets received OK, sum(packetBytes)"
scalar MeshLAN.router[9].eth[7].mac passedUpPk:count 1246
attr interpolationmode none
attr source packetSentToUpper
attr title "packets passed to higher layer, count"
scalar MeshLAN.router[9].eth[7].mac passedUpPk:sum(packetBytes) 881889
attr interpolationmode none
attr source packetSentToUpper
attr title "packets passed to higher layer, sum(packetBytes)"
scalar MeshLAN.router[9].eth[7].encap pauseSent:count 0
attr title "pause sent, count"
scalar MeshLAN.router[9].eth[7].encap pauseSent:sum 0
attr title "pause sent, sum"
scalar MeshLAN.router[9].eth[7].encap decapPk:count 1246
attr interpolationmode none
attr source decapPk
attr title "packets decapsulated, count"
scalar MeshLAN.router[9].eth[7].encap decapPk:sum(packetBytes) 859293
attr interpolationmode none
attr source decapPk
attr title "packets decapsulated, sum(packetBytes)"
scalar MeshLAN.router[9].eth[7].encap encapPk:count 1246
attr interpolationmode none
attr source encapPk
attr title "packets encapsulated, count"
scalar MeshLAN.router[9].eth[7].encap encapPk:sum(packetBytes) 859293
attr interpolationmode none
attr source encapPk
attr title "packets encapsulated, sum(packetBytes)"
scalar MeshLAN.router[9].eth[8].queue.pauseQueue queueLength:max nan
attr interpolationmode sample-hold
attr title "queue length, max"
scalar MeshLAN.router[9].eth[8].queue.pauseQueue queueLength:timeavg nan
attr interpolationmode sample-hold
attr title "queue length, timeavg"
statistic MeshLAN.router[9].eth[8].queue.pauseQueue queueingTime:histogram
field count 0
field mean nan
field stddev nan
field min nan
field max nan
field sum 0
field sqrsum 0
attr interpolationmode none
attr title "queueing time, histogram"
bin	-inf	0
bin	-0.5	0
bin	-0.46666666666667	0
bin	-0.43333333333333	0
bin	-0.4	0
bin	-0.36666666666667	0
bin	-0.33333333333333	0
bin	-0.3	0
bin	-0.26666666666667	0
bin	-0.23333333333333	0
bin	-0.2	0
bin	-0.16666666666667	0
bin	-0.13333333333333	0
bin	-0.1	0
bin	-0.066666666666667	0
bin	-0.033333333333333	0
bin	0	0
bin	0.033333333333333	0
bin	0.066666666666667	0
bin	0.1	0
bin	0.13333333333333	0
bin	0.16666666666667	0
bin	0.2	0
bin	0.23333333333333	0
bin	0.26666666666667	0
bin	0.3	0
bin	0.33333333333333	0
bin	0.36666666666667	0
bin	0.4	0
bin	0.43333333333333	0
bin	0.46666666666667	0
bin	0.5	0
scalar MeshLAN.router[9].eth[8].queue.pauseQueue dropPk:count 0
attr interpolationmode none
attr source dropPkByQueue
attr title "dropped packets, count"
scalar MeshLAN.router[9].eth[8].queue.pauseQueue dropPk:sum(packetBytes) 0
attr interpolationmode none
attr source dropPkByQueue
attr title "dropped packets, sum(packetBytes)"
scalar MeshLAN.router[9].eth[8].queue.pauseQueue rcvdPk:count 0
attr interpolationmode none
attr title "received packets, count"
scalar MeshLAN.router[9].eth[8].queue.pauseQueue rcvdPk:sum(packetBytes) 0
attr interpolationmode none
attr title "received packets, sum(packetBytes)"
scalar MeshLAN.router[9].eth[8].queue.dataQueue queueLength:max 4
attr interpolationmode sample-hold
attr title "queue length, max"
scalar MeshLAN.router[9].eth[8].queue.dataQueue queueLength:timeavg 0.023909443078137
attr interpolationmode sample-hold
attr title "queue length, timeavg"
statistic MeshLAN.router[9].eth[8].queue.dataQueue queueingTime:histogram
field count 1314
field mean 0.00027219856165373
field stddev 0.00040972360004392
field min 0
field max 0.002309651279
field sum 0.357668910013
field sqrsum 0.00031777477438626
attr interpolationmode none
attr title "queueing time, histogram"
bin	-inf	0
bin	-0.0008464	0
bin	-0.00073354666666667	0
bin	-0.00062069333333333	0
bin	-0.00050784	0
bin	-0.00039498666666667	0
bin	-0.00028213333333333	0
bin	-0.00016928	0
bin	-5.6426666666667e-005	822
bin	5.6426666666667e-005	11
bin	0.00016928	37
bin	0.00028213333333333	30
bin	0.00039498666666667	22
bin	0.00050784	57
bin	0.00062069333333333	94
bin	0.00073354666666667	17
bin	0.0008464	185
bin	0.00095925333333333	2
bin	0.0010721066666667	2
bin	0.00118496	2
bin	0.0012978133333333	3
bin	0.0014106666666667	2
bin	0.00152352	1
bin	0.0016363733333333	24
bin	0.0017492266666667	0
bin	0.00186208	0
bin	0.0019749333333333	2
bin	0.0020877866666667	0
bin	0.00220064	1
bin	0.0023134933333333	0
bin	0.0024263466666667	0
bin	0.0025392	0
scalar MeshLAN.router[9].eth[8].queue.dataQueue dropPk:count 0
attr interpolationmode none
attr source dropPkByQueue
attr title "dropped packets, count"
scalar MeshLAN.router[9].eth[8].queue.dataQueue dropPk:sum(packetBytes) 0
attr interpolationmode none
attr source dropPkByQueue
attr title "dropped packets, sum(packetBytes)"
scalar MeshLAN.router[9].eth[8].queue.dataQueue rcvdPk:count 1314
attr interpolationmode none
attr title "received packets, count"
scalar MeshLAN.router[9].eth[8].queue.dataQueue rcvdPk:sum(packetBytes) 971484
attr interpolationmode none
attr title "received packets, sum(packetBytes)"
scalar MeshLAN.router[9].eth[8].mac "simulated time" 20
scalar MeshLAN.router[9].eth[8].mac full-duplex 1
scalar MeshLAN.router[9].eth[8].mac "frames/sec sent" 86.95
scalar MeshLAN.router[9].eth[8].mac "frames/sec rcvd" 86.95
scalar MeshLAN.router[9].eth[8].mac "bits/sec sent" 513446.4
scalar MeshLAN.router[9].eth[8].mac "bits/sec rcvd" 513446.4
scalar MeshLAN.router[9].eth[8].mac "rx channel idle (%)" 94.809888
scalar MeshLAN.router[9].eth[8].mac "rx channel utilization (%)" 5.190112
scalar MeshLAN.router[9].eth[8].mac rxPkFromHL:count 1314
attr interpolationmode none
attr source rxPkFromHL
attr title "packet bytes from higher layer, count"
scalar MeshLAN.router[9].eth[8].mac rxPkFromHL:sum(packetBytes) 971484
attr interpolationmode none
attr source rxPkFromHL
attr title "packet bytes from higher layer, sum(packetBytes)"
scalar MeshLAN.router[9].eth[8].mac rxPausePkUnits:count 0
attr interpolationmode none
attr title "pause units received, count"
scalar MeshLAN.router[9].eth[8].mac rxPausePkUnits:sum 0
attr interpolationmode none
attr title "pause units received, sum"
scalar MeshLAN.router[9].eth[8].mac txPausePkUnits:count 0
attr interpolationmode none
attr title "pause units sent, count"
scalar MeshLAN.router[9].eth[8].mac txPausePkUnits:sum 0
attr interpolationmode none
attr title "pause units sent, sum"
scalar MeshLAN.router[9].eth[8].mac txPk:count 1314
attr interpolationmode none
attr source txPk
attr title "packets transmitted, count"
scalar MeshLAN.router[9].eth[8].mac txPk:sum(packetBytes) 971484
attr interpolationmode none
attr source txPk
attr title "packets transmitted, sum(packetBytes)"
scalar MeshLAN.router[9].eth[8].mac droppedPkNotForUs:count 0
attr interpolationmode none
attr source dropPkNotForUs
attr title "packets dropped/not for us, count"
scalar MeshLAN.router[9].eth[8].mac droppedPkNotForUs:sum(packetBytes) 0
attr interpolationmode none
attr source dropPkNotForUs
attr title "packets dropped/not for us, sum(packetBytes)"
scalar MeshLAN.router[9].eth[8].mac droppedPkBitError:count 0
attr interpolationmode none
attr source dropPkBitError
attr title "packets dropped/bit error, count"
scalar MeshLAN.router[9].eth[8].mac droppedPkBitError:sum(packetBytes) 0
attr interpolationmode none
attr source dropPkBitError
attr title "packets dropped/bit error, sum(packetBytes)"
scalar MeshLAN.router[9].eth[8].mac droppedPkIfaceDown:count 0
attr interpolationmode none
attr source dropPkIfaceDown
attr title "packets dropped/interface down, count"
scalar MeshLAN.router[9].eth[8].mac droppedPkIfaceDown:sum(packetBytes) 0
attr interpolationmode none
attr source dropPkIfaceDown
attr title "packets dropped/interface down, sum(packetBytes)"
scalar MeshLAN.router[9].eth[8].mac rxPkOk:count 1314
attr interpolationmode none
attr source rxPkOk
attr title "packets received OK, count"
scalar MeshLAN.router[9].eth[8].mac rxPkOk:sum(packetBytes) 971484
attr interpolationmode none
attr source rxPkOk
attr title "packets received OK, sum(packetBytes)"
scalar MeshLAN.router[9].eth[8].mac passedUpPk:count 1314
attr interpolationmode none
attr source packetSentToUpper
attr title "packets passed to higher layer, count"
scalar MeshLAN.router[9].eth[8].mac passedUpPk:sum(packetBytes) 971484
attr interpolationmode none
attr source packetSentToUpper
attr title "packets passed to higher layer, sum(packetBytes)"
scalar MeshLAN.router[9].eth[8].encap pauseSent:count 0
attr title "pause sent, count"
scalar MeshLAN.router[9].eth[8].encap pauseSent:sum 0
attr title "pause sent, sum"
scalar MeshLAN.router[9].eth[8].encap decapPk:count 1314
attr interpolationmode none
attr source decapPk
attr title "packets decapsulated, count"
scalar MeshLAN.router[9].eth[8].encap decapPk:sum(packetBytes) 947340
attr interpolationmode none
attr source decapPk
attr title "packets decapsulated, sum(packetBytes)"
scalar MeshLAN.router[9].eth[8].encap encapPk:count 1314
attr interpolationmode none
attr source encapPk
attr title "packets encapsulated, count"
scalar MeshLAN.router[9].eth[8].encap encapPk:sum(packetBytes) 947340
attr interpolationmode none
attr source encapPk
attr title "packets encapsulated, sum(packetBytes)"
scalar MeshLAN.router[9].eth[9].queue.pauseQueue queueLength:max nan
attr interpolationmode sample-hold
attr title "queue length, max"
scalar MeshLAN.router[9].eth[9].queue.pauseQueue queueLength:timeavg nan
attr interpolationmode sample-hold
attr title "queue length, timeavg"
statistic MeshLAN.router[9].eth[9].queue.pauseQueue queueingTime:histogram
field count 0
field mean nan
field stddev nan
field min nan
field max nan
field sum 0
field sqrsum 0
attr interpolationmode none
attr title "queueing time, histogram"
bin	-inf	0
bin	-0.5	0
bin	-0.46666666666667	0
bin	-0.43333333333333	0
bin	-0.4	0
bin	-0.36666666666667	0
bin	-0.33333333333333	0
bin	-0.3	0
bin	-0.26666666666667	0
bin	-0.23333333333333	0
bin	-0.2	0
bin	-0.16666666666667	0
bin	-0.13333333333333	0
bin	-0.1	0
bin	-0.066666666666667	0
bin	-0.033333333333333	0
bin	0	0
bin	0.033333333333333	0
bin	0.066666666666667	0
bin	0.1	0
bin	0.13333333333333	0
bin	0.16666666666667	0
bin	0.2	0
bin	0.23333333333333	0
bin	0.26666666666667	0
bin	0.3	0
bin	0.33333333333333	0
bin	0.36666666666667	0
bin	0.4	0
bin	0.43333333333333	0
bin	0.46666666666667	0
bin	0.5	0
scalar MeshLAN.router[9].eth[9].queue.pauseQueue dropPk:count 0
attr interpolationmode none
attr source dropPkByQueue
attr title "dropped packets, count"
scalar MeshLAN.router[9].eth[9].queue.pauseQueue dropPk:sum(packetBytes) 0
attr interpolationmode none
attr source dropPkByQueue
attr title "dropped packets, sum(packetBytes)"
scalar MeshLAN.router[9].eth[9].queue.pauseQueue rcvdPk:count 0
attr interpolationmode none
attr title "received packets, count"
scalar MeshLAN.router[9].eth[9].queue.pauseQueue rcvdPk:sum(packetBytes) 0
attr interpolationmode none
attr title "received packets, sum(packetBytes)"
scalar MeshLAN.router[9].eth[9].queue.dataQueue queueLength:max 4
attr interpolationmode sample-hold
attr title "queue length, max"
scalar MeshLAN.router[9].eth[9].queue.dataQueue queueLength:timeavg 0.023314122855351
attr interpolationmode sample-hold
attr title "queue length, timeavg"
statistic MeshLAN.router[9].eth[9].queue.dataQueue queueingTime:histogram
field count 1237
field mean 0.00028287434060792
field stddev 0.00041036408757786
field min 0
field max 0.002184208602
field sum 0.349915559332
field sqrsum 0.00030712290700028
attr interpolationmode none
attr title "queueing time, histogram"
bin	-inf	0
bin	-0.0005344751355	0
bin	-0.0004632117841	0
bin	-0.0003919484327	0
bin	-0.0003206850813	0
bin	-0.0002494217299	0
bin	-0.0001781583785	0
bin	-0.0001068950271	0
bin	-3.56316757e-005	751
bin	3.56316757e-005	3
bin	0.0001068950271	11
bin	0.0001781583785	34
bin	0.0002494217299	21
bin	0.0003206850813	19
bin	0.0003919484327	19
bin	0.0004632117841	4
bin	0.0005344751355	48
bin	0.0006057384869	31
bin	0.0006770018383	22
bin	0.0007482651897	17
bin	0.0008195285411	222
bin	0.0008907918925	3
bin	0.0009620552439	2
bin	0.0010333185953	3
bin	0.0011045819467	0
bin	0.0011758452981	0
bin	0.0012471086495	1
bin	0.0013183720009	0
bin	0.0013896353523	0
bin	0.0014608987037	1
bin	0.0015321620551	1
bin	0.0016034254065	24
scalar MeshLAN.router[9].eth[9].queue.dataQueue dropPk:count 0
attr interpolationmode none
attr source dropPkByQueue
attr title "dropped packets, count"
scalar MeshLAN.router[9].eth[9].queue.dataQueue dropPk:sum(packetBytes) 0
attr interpolationmode none
attr source dropPkByQueue
attr title "dropped packets, sum(packetBytes)"
scalar MeshLAN.router[9].eth[9].queue.dataQueue rcvdPk:count 1236
attr interpolationmode none
attr title "received packets, count"
scalar MeshLAN.router[9].eth[9].queue.dataQueue rcvdPk:sum(packetBytes) 880303
attr interpolationmode none
attr title "received packets, sum(packetBytes)"
scalar MeshLAN.router[9].eth[9].mac "simulated time" 20
scalar MeshLAN.router[9].eth[9].mac full-duplex 1
scalar MeshLAN.router[9].eth[9].mac "frames/sec sent" 81.55
scalar MeshLAN.router[9].eth[9].mac "frames/sec rcvd" 81.55
scalar MeshLAN.router[9].eth[9].mac "bits/sec sent" 463232.8
scalar MeshLAN.router[9].eth[9].mac "bits/sec rcvd" 463232.8
scalar MeshLAN.router[9].eth[9].mac "rx channel idle (%)" 95.31548
scalar MeshLAN.router[9].eth[9].mac "rx channel utilization (%)" 4.68452
scalar MeshLAN.router[9].eth[9].mac rxPkFromHL:count 1237
attr interpolationmode none
attr source rxPkFromHL
attr title "packet bytes from higher layer, count"
scalar MeshLAN.router[9].eth[9].mac rxPkFromHL:sum(packetBytes) 881086
attr interpolationmode none
attr source rxPkFromHL
attr title "packet bytes from higher layer, sum(packetBytes)"
scalar MeshLAN.router[9].eth[9].mac rxPausePkUnits:count 0
attr interpolationmode none
attr title "pause units received, count"
scalar MeshLAN.router[9].eth[9].mac rxPausePkUnits:sum 0
attr interpolationmode none
attr title "pause units received, sum"
scalar MeshLAN.router[9].eth[9].mac txPausePkUnits:count 0
attr interpolationmode none
attr title "pause units sent, count"
scalar MeshLAN.router[9].eth[9].mac txPausePkUnits:sum 0
attr interpolationmode none
attr title "pause units sent, sum"
scalar MeshLAN.router[9].eth[9].mac txPk:count 1238
attr interpolationmode none
attr source txPk
attr title "packets transmitted, count"
scalar MeshLAN.router[9].eth[9].mac txPk:sum(packetBytes) 882124
attr interpolationmode none
attr source txPk
attr title "packets transmitted, sum(packetBytes)"
scalar MeshLAN.router[9].eth[9].mac droppedPkNotForUs:count 0
attr interpolationmode none
attr source dropPkNotForUs
attr title "packets dropped/not for us, count"
scalar MeshLAN.router[9].eth[9].mac droppedPkNotForUs:sum(packetBytes) 0
attr interpolationmode none
attr source dropPkNotForUs
attr title "packets dropped/not for us, sum(packetBytes)"
scalar MeshLAN.router[9].eth[9].mac droppedPkBitError:count 0
attr interpolationmode none
attr source dropPkBitError
attr title "packets dropped/bit error, count"
scalar MeshLAN.router[9].eth[9].mac droppedPkBitError:sum(packetBytes) 0
attr interpolationmode none
attr source dropPkBitError
attr title "packets dropped/bit error, sum(packetBytes)"
scalar MeshLAN.router[9].eth[9].mac droppedPkIfaceDown:count 0
attr interpolationmode none
attr source dropPkIfaceDown
attr title "packets dropped/interface down, count"
scalar MeshLAN.router[9].eth[9].mac droppedPkIfaceDown:sum(packetBytes) 0
attr interpolationmode none
attr source dropPkIfaceDown
attr title "packets dropped/interface down, sum(packetBytes)"
scalar MeshLAN.router[9].eth[9].mac rxPkOk:count 1238
attr interpolationmode none
attr source rxPkOk
attr title "packets received OK, count"
scalar MeshLAN.router[9].eth[9].mac rxPkOk:sum(packetBytes) 882124
attr interpolationmode none
attr source rxPkOk
attr title "packets received OK, sum(packetBytes)"
scalar MeshLAN.router[9].eth[9].mac passedUpPk:count 1238
attr interpolationmode none
attr source packetSentToUpper
attr title "packets passed to higher layer, count"
scalar MeshLAN.router[9].eth[9].mac passedUpPk:sum(packetBytes) 882124
attr interpolationmode none
attr source packetSentToUpper
attr title "packets passed to higher layer, sum(packetBytes)"
scalar MeshLAN.router[9].eth[9].encap pauseSent:count 0
attr title "pause sent, count"
scalar MeshLAN.router[9].eth[9].encap pauseSent:sum 0
attr title "pause sent, sum"
scalar MeshLAN.router[9].eth[9].encap decapPk:count 1238
attr interpolationmode none
attr source decapPk
attr title "packets decapsulated, count"
scalar MeshLAN.router[9].eth[9].encap decapPk:sum(packetBytes) 859636
attr interpolationmode none
attr source decapPk
attr title "packets decapsulated, sum(packetBytes)"
scalar MeshLAN.router[9].eth[9].encap encapPk:count 1236
attr interpolationmode none
attr source encapPk
attr title "packets encapsulated, count"
scalar MeshLAN.router[9].eth[9].encap encapPk:sum(packetBytes) 857851
attr interpolationmode none
attr source encapPk
attr title "packets encapsulated, sum(packetBytes)"

