version 2
run MeshLAN10-datarate-1-20180110-21:39:58-7788
attr configname MeshLAN10-datarate
attr datetime 20180110-21:39:58
attr experiment MeshLAN10-datarate
attr inifile MeshLAN.ini
attr iterationvars $pa=28
attr iterationvarsf pa=28-
attr measurement $pa=28
attr network MeshLAN
attr processid 7788
attr repetition 0
attr replication #0
attr resultdir results
attr runnumber 1
attr seedset 1
itervar pa 28
param *.numHosts 10
param **.datarate 100Mbps
param **.host[*].pingApp[*].sendInterval "truncnormal(50ms, 25ms)"
param **.host[*].pingApp[*].packetSize "truncnormal(1024B, 512B)"
param **.queueType "\"DropTailQueue\""
param **.frameCapacity 10
param **.mtu 1024B
param **.host[*].numPingApps 28
param **.host[*].pingApp[*].typename "\"PingApp\""
param **.host[*].pingApp[*].count 1
param **.host[*].pingApp[*].startTime "truncnormal(200ms, 100ms)"
param **.host[*].pingApp[*].destAddr "\"*\""

scalar MeshLAN.host[0].networkLayer.arp sentReply:count 0
attr title "ARP replies sent, count"
scalar MeshLAN.host[0].networkLayer.arp sentReq:count 0
attr title "ARP request sent, count"
scalar MeshLAN.host[0].networkLayer.arp failedARPResolution:count 0
attr title "ARP failed resolutions, count"
scalar MeshLAN.host[0].networkLayer.arp completedARPResolution:count 0
attr title "ARP completed resolutions, count"
scalar MeshLAN.host[0].networkLayer.arp initiatedARPResolution:count 0
attr title "ARP initiated resolutions, count"
scalar MeshLAN.host[0].lo0.lo droppedPkBitError:count 0
attr interpolationmode none
attr source dropPkBitError
attr title "packets dropped/bit error, count"
scalar MeshLAN.host[0].lo0.lo droppedPkBitError:sum(packetBytes) 0
attr interpolationmode none
attr source dropPkBitError
attr title "packets dropped/bit error, sum(packetBytes)"
scalar MeshLAN.host[0].lo0.lo rcvdPkFromHL:count 238
attr interpolationmode none
attr source packetReceivedFromUpper
attr title "packets received from higher layer, count"
scalar MeshLAN.host[0].lo0.lo rcvdPkFromHL:sum(packetBytes) 168546
attr interpolationmode none
attr source packetReceivedFromUpper
attr title "packets received from higher layer, sum(packetBytes)"
scalar MeshLAN.host[0].lo0.lo passedUpPk:count 238
attr interpolationmode none
attr source packetSentToUpper
attr title "packets passed to higher layer, count"
scalar MeshLAN.host[0].lo0.lo passedUpPk:sum(packetBytes) 168546
attr interpolationmode none
attr source packetSentToUpper
attr title "packets passed to higher layer, sum(packetBytes)"
scalar MeshLAN.host[0].eth[0].queue.pauseQueue queueLength:max nan
attr interpolationmode sample-hold
attr title "queue length, max"
scalar MeshLAN.host[0].eth[0].queue.pauseQueue queueLength:timeavg nan
attr interpolationmode sample-hold
attr title "queue length, timeavg"
statistic MeshLAN.host[0].eth[0].queue.pauseQueue queueingTime:histogram
field count 0
field mean nan
field stddev nan
field min nan
field max nan
field sum 0
field sqrsum 0
attr interpolationmode none
attr title "queueing time, histogram"
bin	-inf	0
bin	-0.5	0
bin	-0.46666666666667	0
bin	-0.43333333333333	0
bin	-0.4	0
bin	-0.36666666666667	0
bin	-0.33333333333333	0
bin	-0.3	0
bin	-0.26666666666667	0
bin	-0.23333333333333	0
bin	-0.2	0
bin	-0.16666666666667	0
bin	-0.13333333333333	0
bin	-0.1	0
bin	-0.066666666666667	0
bin	-0.033333333333333	0
bin	0	0
bin	0.033333333333333	0
bin	0.066666666666667	0
bin	0.1	0
bin	0.13333333333333	0
bin	0.16666666666667	0
bin	0.2	0
bin	0.23333333333333	0
bin	0.26666666666667	0
bin	0.3	0
bin	0.33333333333333	0
bin	0.36666666666667	0
bin	0.4	0
bin	0.43333333333333	0
bin	0.46666666666667	0
bin	0.5	0
scalar MeshLAN.host[0].eth[0].queue.pauseQueue dropPk:count 0
attr interpolationmode none
attr source dropPkByQueue
attr title "dropped packets, count"
scalar MeshLAN.host[0].eth[0].queue.pauseQueue dropPk:sum(packetBytes) 0
attr interpolationmode none
attr source dropPkByQueue
attr title "dropped packets, sum(packetBytes)"
scalar MeshLAN.host[0].eth[0].queue.pauseQueue rcvdPk:count 0
attr interpolationmode none
attr title "received packets, count"
scalar MeshLAN.host[0].eth[0].queue.pauseQueue rcvdPk:sum(packetBytes) 0
attr interpolationmode none
attr title "received packets, sum(packetBytes)"
scalar MeshLAN.host[0].eth[0].queue.dataQueue queueLength:max 5
attr interpolationmode sample-hold
attr title "queue length, max"
scalar MeshLAN.host[0].eth[0].queue.dataQueue queueLength:timeavg 0.027377069170669
attr interpolationmode sample-hold
attr title "queue length, timeavg"
statistic MeshLAN.host[0].eth[0].queue.dataQueue queueingTime:histogram
field count 13148
field mean 3.1228493705737e-005
field stddev 4.30334008942e-005
field min 0
field max 0.000307671661
field sum 0.41059223524303
field sqrsum 3.7168759154785e-005
attr interpolationmode none
attr title "queueing time, histogram"
bin	-inf	0
bin	-7.17645655e-005	0
bin	-6.2195956766667e-005	0
bin	-5.2627348033333e-005	0
bin	-4.30587393e-005	0
bin	-3.3490130566667e-005	0
bin	-2.3921521833333e-005	0
bin	-1.43529131e-005	0
bin	-4.7843043666667e-006	8332
bin	4.7843043666667e-006	45
bin	1.43529131e-005	50
bin	2.3921521833333e-005	41
bin	3.3490130566667e-005	43
bin	4.30587393e-005	33
bin	5.2627348033333e-005	44
bin	6.2195956766667e-005	35
bin	7.17645655e-005	19
bin	8.1333174233333e-005	4196
bin	9.0901782966667e-005	45
bin	0.0001004703917	46
bin	0.00011003900043333	29
bin	0.00011960760916667	28
bin	0.0001291762179	24
bin	0.00013874482663333	26
bin	0.00014831343536667	16
bin	0.0001578820441	12
bin	0.00016745065283333	40
bin	0.00017701926156667	11
bin	0.0001865878703	12
bin	0.00019615647903333	6
bin	0.00020572508776667	1
bin	0.0002152936965	14
scalar MeshLAN.host[0].eth[0].queue.dataQueue dropPk:count 0
attr interpolationmode none
attr source dropPkByQueue
attr title "dropped packets, count"
scalar MeshLAN.host[0].eth[0].queue.dataQueue dropPk:sum(packetBytes) 0
attr interpolationmode none
attr source dropPkByQueue
attr title "dropped packets, sum(packetBytes)"
scalar MeshLAN.host[0].eth[0].queue.dataQueue rcvdPk:count 13148
attr interpolationmode none
attr title "received packets, count"
scalar MeshLAN.host[0].eth[0].queue.dataQueue rcvdPk:sum(packetBytes) 9474159
attr interpolationmode none
attr title "received packets, sum(packetBytes)"
scalar MeshLAN.host[0].eth[0].mac "simulated time" 20
scalar MeshLAN.host[0].eth[0].mac full-duplex 1
scalar MeshLAN.host[0].eth[0].mac "frames/sec sent" 889.45
scalar MeshLAN.host[0].eth[0].mac "frames/sec rcvd" 889.45
scalar MeshLAN.host[0].eth[0].mac "bits/sec sent" 5125424.8
scalar MeshLAN.host[0].eth[0].mac "bits/sec rcvd" 5125424.8
scalar MeshLAN.host[0].eth[0].mac "rx channel idle (%)" 94.8176504
scalar MeshLAN.host[0].eth[0].mac "rx channel utilization (%)" 5.1823496
scalar MeshLAN.host[0].eth[0].mac rxPkFromHL:count 13148
attr interpolationmode none
attr source rxPkFromHL
attr title "packet bytes from higher layer, count"
scalar MeshLAN.host[0].eth[0].mac rxPkFromHL:sum(packetBytes) 9474159
attr interpolationmode none
attr source rxPkFromHL
attr title "packet bytes from higher layer, sum(packetBytes)"
scalar MeshLAN.host[0].eth[0].mac rxPausePkUnits:count 0
attr interpolationmode none
attr title "pause units received, count"
scalar MeshLAN.host[0].eth[0].mac rxPausePkUnits:sum 0
attr interpolationmode none
attr title "pause units received, sum"
scalar MeshLAN.host[0].eth[0].mac txPausePkUnits:count 0
attr interpolationmode none
attr title "pause units sent, count"
scalar MeshLAN.host[0].eth[0].mac txPausePkUnits:sum 0
attr interpolationmode none
attr title "pause units sent, sum"
scalar MeshLAN.host[0].eth[0].mac txPk:count 13148
attr interpolationmode none
attr source txPk
attr title "packets transmitted, count"
scalar MeshLAN.host[0].eth[0].mac txPk:sum(packetBytes) 9474159
attr interpolationmode none
attr source txPk
attr title "packets transmitted, sum(packetBytes)"
scalar MeshLAN.host[0].eth[0].mac droppedPkNotForUs:count 0
attr interpolationmode none
attr source dropPkNotForUs
attr title "packets dropped/not for us, count"
scalar MeshLAN.host[0].eth[0].mac droppedPkNotForUs:sum(packetBytes) 0
attr interpolationmode none
attr source dropPkNotForUs
attr title "packets dropped/not for us, sum(packetBytes)"
scalar MeshLAN.host[0].eth[0].mac droppedPkBitError:count 0
attr interpolationmode none
attr source dropPkBitError
attr title "packets dropped/bit error, count"
scalar MeshLAN.host[0].eth[0].mac droppedPkBitError:sum(packetBytes) 0
attr interpolationmode none
attr source dropPkBitError
attr title "packets dropped/bit error, sum(packetBytes)"
scalar MeshLAN.host[0].eth[0].mac droppedPkIfaceDown:count 0
attr interpolationmode none
attr source dropPkIfaceDown
attr title "packets dropped/interface down, count"
scalar MeshLAN.host[0].eth[0].mac droppedPkIfaceDown:sum(packetBytes) 0
attr interpolationmode none
attr source dropPkIfaceDown
attr title "packets dropped/interface down, sum(packetBytes)"
scalar MeshLAN.host[0].eth[0].mac rxPkOk:count 13150
attr interpolationmode none
attr source rxPkOk
attr title "packets received OK, count"
scalar MeshLAN.host[0].eth[0].mac rxPkOk:sum(packetBytes) 9475528
attr interpolationmode none
attr source rxPkOk
attr title "packets received OK, sum(packetBytes)"
scalar MeshLAN.host[0].eth[0].mac passedUpPk:count 13150
attr interpolationmode none
attr source packetSentToUpper
attr title "packets passed to higher layer, count"
scalar MeshLAN.host[0].eth[0].mac passedUpPk:sum(packetBytes) 9475528
attr interpolationmode none
attr source packetSentToUpper
attr title "packets passed to higher layer, sum(packetBytes)"
scalar MeshLAN.host[0].eth[0].encap pauseSent:count 0
attr title "pause sent, count"
scalar MeshLAN.host[0].eth[0].encap pauseSent:sum 0
attr title "pause sent, sum"
scalar MeshLAN.host[0].eth[0].encap decapPk:count 13150
attr interpolationmode none
attr source decapPk
attr title "packets decapsulated, count"
scalar MeshLAN.host[0].eth[0].encap decapPk:sum(packetBytes) 9238701
attr interpolationmode none
attr source decapPk
attr title "packets decapsulated, sum(packetBytes)"
scalar MeshLAN.host[0].eth[0].encap encapPk:count 13148
attr interpolationmode none
attr source encapPk
attr title "packets encapsulated, count"
scalar MeshLAN.host[0].eth[0].encap encapPk:sum(packetBytes) 9237368
attr interpolationmode none
attr source encapPk
attr title "packets encapsulated, sum(packetBytes)"
scalar MeshLAN.host[0].pingApp[0] "Pings sent" 385
scalar MeshLAN.host[0].pingApp[0] "ping loss rate (%)" 0
scalar MeshLAN.host[0].pingApp[0] "ping out-of-order rate (%)" 0
scalar MeshLAN.host[0].pingApp[0] pingRxSeq:count 297
attr interpolationmode none
attr title "ping rx seq, count"
scalar MeshLAN.host[0].pingApp[0] pingTxSeq:count 297
attr interpolationmode none
attr title "ping tx seq, count"
scalar MeshLAN.host[0].pingApp[0] numOutOfOrderArrivals:last nan
attr interpolationmode none
attr title "ping out-of-order arrivals, last"
scalar MeshLAN.host[0].pingApp[0] numLost:last nan
attr interpolationmode none
attr title "pings lost, last"
scalar MeshLAN.host[0].pingApp[0] rtt:mean 0.00043533170461695
attr interpolationmode none
attr title "ping round-trip time, mean"
attr unit s
scalar MeshLAN.host[0].pingApp[1] "Pings sent" 387
scalar MeshLAN.host[0].pingApp[1] "ping loss rate (%)" 0
scalar MeshLAN.host[0].pingApp[1] "ping out-of-order rate (%)" 0
scalar MeshLAN.host[0].pingApp[1] pingRxSeq:count 293
attr interpolationmode none
attr title "ping rx seq, count"
scalar MeshLAN.host[0].pingApp[1] pingTxSeq:count 293
attr interpolationmode none
attr title "ping tx seq, count"
scalar MeshLAN.host[0].pingApp[1] numOutOfOrderArrivals:last nan
attr interpolationmode none
attr title "ping out-of-order arrivals, last"
scalar MeshLAN.host[0].pingApp[1] numLost:last nan
attr interpolationmode none
attr title "pings lost, last"
scalar MeshLAN.host[0].pingApp[1] rtt:mean 0.00035423325466667
attr interpolationmode none
attr title "ping round-trip time, mean"
attr unit s
scalar MeshLAN.host[0].pingApp[2] "Pings sent" 379
scalar MeshLAN.host[0].pingApp[2] "ping loss rate (%)" 0
scalar MeshLAN.host[0].pingApp[2] "ping out-of-order rate (%)" 0
scalar MeshLAN.host[0].pingApp[2] pingRxSeq:count 285
attr interpolationmode none
attr title "ping rx seq, count"
scalar MeshLAN.host[0].pingApp[2] pingTxSeq:count 285
attr interpolationmode none
attr title "ping tx seq, count"
scalar MeshLAN.host[0].pingApp[2] numOutOfOrderArrivals:last nan
attr interpolationmode none
attr title "ping out-of-order arrivals, last"
scalar MeshLAN.host[0].pingApp[2] numLost:last nan
attr interpolationmode none
attr title "pings lost, last"
scalar MeshLAN.host[0].pingApp[2] rtt:mean 0.00035542760933808
attr interpolationmode none
attr title "ping round-trip time, mean"
attr unit s
scalar MeshLAN.host[0].pingApp[3] "Pings sent" 381
scalar MeshLAN.host[0].pingApp[3] "ping loss rate (%)" 0
scalar MeshLAN.host[0].pingApp[3] "ping out-of-order rate (%)" 0
scalar MeshLAN.host[0].pingApp[3] pingRxSeq:count 289
attr interpolationmode none
attr title "ping rx seq, count"
scalar MeshLAN.host[0].pingApp[3] pingTxSeq:count 289
attr interpolationmode none
attr title "ping tx seq, count"
scalar MeshLAN.host[0].pingApp[3] numOutOfOrderArrivals:last nan
attr interpolationmode none
attr title "ping out-of-order arrivals, last"
scalar MeshLAN.host[0].pingApp[3] numLost:last nan
attr interpolationmode none
attr title "pings lost, last"
scalar MeshLAN.host[0].pingApp[3] rtt:mean 0.00027000500987413
attr interpolationmode none
attr title "ping round-trip time, mean"
attr unit s
scalar MeshLAN.host[0].pingApp[4] "Pings sent" 385
scalar MeshLAN.host[0].pingApp[4] "ping loss rate (%)" 0
scalar MeshLAN.host[0].pingApp[4] "ping out-of-order rate (%)" 0
scalar MeshLAN.host[0].pingApp[4] pingRxSeq:count 291
attr interpolationmode none
attr title "ping rx seq, count"
scalar MeshLAN.host[0].pingApp[4] pingTxSeq:count 291
attr interpolationmode none
attr title "ping tx seq, count"
scalar MeshLAN.host[0].pingApp[4] numOutOfOrderArrivals:last nan
attr interpolationmode none
attr title "ping out-of-order arrivals, last"
scalar MeshLAN.host[0].pingApp[4] numLost:last nan
attr interpolationmode none
attr title "pings lost, last"
scalar MeshLAN.host[0].pingApp[4] rtt:mean 0.0004353260679965
attr interpolationmode none
attr title "ping round-trip time, mean"
attr unit s
scalar MeshLAN.host[0].pingApp[5] "Pings sent" 400
scalar MeshLAN.host[0].pingApp[5] "ping loss rate (%)" 0
scalar MeshLAN.host[0].pingApp[5] "ping out-of-order rate (%)" 0
scalar MeshLAN.host[0].pingApp[5] pingRxSeq:count 301
attr interpolationmode none
attr title "ping rx seq, count"
scalar MeshLAN.host[0].pingApp[5] pingTxSeq:count 301
attr interpolationmode none
attr title "ping tx seq, count"
scalar MeshLAN.host[0].pingApp[5] numOutOfOrderArrivals:last nan
attr interpolationmode none
attr title "ping out-of-order arrivals, last"
scalar MeshLAN.host[0].pingApp[5] numLost:last nan
attr interpolationmode none
attr title "pings lost, last"
scalar MeshLAN.host[0].pingApp[5] rtt:mean 0.00028271279665436
attr interpolationmode none
attr title "ping round-trip time, mean"
attr unit s
scalar MeshLAN.host[0].pingApp[6] "Pings sent" 390
scalar MeshLAN.host[0].pingApp[6] "ping loss rate (%)" 0
scalar MeshLAN.host[0].pingApp[6] "ping out-of-order rate (%)" 0
scalar MeshLAN.host[0].pingApp[6] pingRxSeq:count 295
attr interpolationmode none
attr title "ping rx seq, count"
scalar MeshLAN.host[0].pingApp[6] pingTxSeq:count 295
attr interpolationmode none
attr title "ping tx seq, count"
scalar MeshLAN.host[0].pingApp[6] numOutOfOrderArrivals:last nan
attr interpolationmode none
attr title "ping out-of-order arrivals, last"
scalar MeshLAN.host[0].pingApp[6] numLost:last nan
attr interpolationmode none
attr title "pings lost, last"
scalar MeshLAN.host[0].pingApp[6] rtt:mean 0.00025468700710884
attr interpolationmode none
attr title "ping round-trip time, mean"
attr unit s
scalar MeshLAN.host[0].pingApp[7] "Pings sent" 384
scalar MeshLAN.host[0].pingApp[7] "ping loss rate (%)" 0
scalar MeshLAN.host[0].pingApp[7] "ping out-of-order rate (%)" 0
scalar MeshLAN.host[0].pingApp[7] pingRxSeq:count 288
attr interpolationmode none
attr title "ping rx seq, count"
scalar MeshLAN.host[0].pingApp[7] pingTxSeq:count 288
attr interpolationmode none
attr title "ping tx seq, count"
scalar MeshLAN.host[0].pingApp[7] numOutOfOrderArrivals:last nan
attr interpolationmode none
attr title "ping out-of-order arrivals, last"
scalar MeshLAN.host[0].pingApp[7] numLost:last nan
attr interpolationmode none
attr title "pings lost, last"
scalar MeshLAN.host[0].pingApp[7] rtt:mean 0.00031465442627018
attr interpolationmode none
attr title "ping round-trip time, mean"
attr unit s
scalar MeshLAN.host[0].pingApp[8] "Pings sent" 400
scalar MeshLAN.host[0].pingApp[8] "ping loss rate (%)" 0
scalar MeshLAN.host[0].pingApp[8] "ping out-of-order rate (%)" 0
scalar MeshLAN.host[0].pingApp[8] pingRxSeq:count 298
attr interpolationmode none
attr title "ping rx seq, count"
scalar MeshLAN.host[0].pingApp[8] pingTxSeq:count 298
attr interpolationmode none
attr title "ping tx seq, count"
scalar MeshLAN.host[0].pingApp[8] numOutOfOrderArrivals:last nan
attr interpolationmode none
attr title "ping out-of-order arrivals, last"
scalar MeshLAN.host[0].pingApp[8] numLost:last nan
attr interpolationmode none
attr title "pings lost, last"
scalar MeshLAN.host[0].pingApp[8] rtt:mean 0.00018429773776191
attr interpolationmode none
attr title "ping round-trip time, mean"
attr unit s
scalar MeshLAN.host[0].pingApp[9] "Pings sent" 374
scalar MeshLAN.host[0].pingApp[9] "ping loss rate (%)" 0
scalar MeshLAN.host[0].pingApp[9] "ping out-of-order rate (%)" 0
scalar MeshLAN.host[0].pingApp[9] pingRxSeq:count 285
attr interpolationmode none
attr title "ping rx seq, count"
scalar MeshLAN.host[0].pingApp[9] pingTxSeq:count 284
attr interpolationmode none
attr title "ping tx seq, count"
scalar MeshLAN.host[0].pingApp[9] numOutOfOrderArrivals:last nan
attr interpolationmode none
attr title "ping out-of-order arrivals, last"
scalar MeshLAN.host[0].pingApp[9] numLost:last nan
attr interpolationmode none
attr title "pings lost, last"
scalar MeshLAN.host[0].pingApp[9] rtt:mean 0.00039189340869014
attr interpolationmode none
attr title "ping round-trip time, mean"
attr unit s
scalar MeshLAN.host[0].pingApp[10] "Pings sent" 384
scalar MeshLAN.host[0].pingApp[10] "ping loss rate (%)" 0
scalar MeshLAN.host[0].pingApp[10] "ping out-of-order rate (%)" 0
scalar MeshLAN.host[0].pingApp[10] pingRxSeq:count 283
attr interpolationmode none
attr title "ping rx seq, count"
scalar MeshLAN.host[0].pingApp[10] pingTxSeq:count 283
attr interpolationmode none
attr title "ping tx seq, count"
scalar MeshLAN.host[0].pingApp[10] numOutOfOrderArrivals:last nan
attr interpolationmode none
attr title "ping out-of-order arrivals, last"
scalar MeshLAN.host[0].pingApp[10] numLost:last nan
attr interpolationmode none
attr title "pings lost, last"
scalar MeshLAN.host[0].pingApp[10] rtt:mean 0.0002823419869395
attr interpolationmode none
attr title "ping round-trip time, mean"
attr unit s
scalar MeshLAN.host[0].pingApp[11] "Pings sent" 391
scalar MeshLAN.host[0].pingApp[11] "ping loss rate (%)" 0
scalar MeshLAN.host[0].pingApp[11] "ping out-of-order rate (%)" 0
scalar MeshLAN.host[0].pingApp[11] pingRxSeq:count 288
attr interpolationmode none
attr title "ping rx seq, count"
scalar MeshLAN.host[0].pingApp[11] pingTxSeq:count 288
attr interpolationmode none
attr title "ping tx seq, count"
scalar MeshLAN.host[0].pingApp[11] numOutOfOrderArrivals:last nan
attr interpolationmode none
attr title "ping out-of-order arrivals, last"
scalar MeshLAN.host[0].pingApp[11] numLost:last nan
attr interpolationmode none
attr title "pings lost, last"
scalar MeshLAN.host[0].pingApp[11] rtt:mean 0.00041693972136268
attr interpolationmode none
attr title "ping round-trip time, mean"
attr unit s
scalar MeshLAN.host[0].pingApp[12] "Pings sent" 378
scalar MeshLAN.host[0].pingApp[12] "ping loss rate (%)" 0
scalar MeshLAN.host[0].pingApp[12] "ping out-of-order rate (%)" 0
scalar MeshLAN.host[0].pingApp[12] pingRxSeq:count 284
attr interpolationmode none
attr title "ping rx seq, count"
scalar MeshLAN.host[0].pingApp[12] pingTxSeq:count 284
attr interpolationmode none
attr title "ping tx seq, count"
scalar MeshLAN.host[0].pingApp[12] numOutOfOrderArrivals:last nan
attr interpolationmode none
attr title "ping out-of-order arrivals, last"
scalar MeshLAN.host[0].pingApp[12] numLost:last nan
attr interpolationmode none
attr title "pings lost, last"
scalar MeshLAN.host[0].pingApp[12] rtt:mean 0.00046251894101792
attr interpolationmode none
attr title "ping round-trip time, mean"
attr unit s
scalar MeshLAN.host[0].pingApp[13] "Pings sent" 393
scalar MeshLAN.host[0].pingApp[13] "ping loss rate (%)" 0
scalar MeshLAN.host[0].pingApp[13] "ping out-of-order rate (%)" 0
scalar MeshLAN.host[0].pingApp[13] pingRxSeq:count 300
attr interpolationmode none
attr title "ping rx seq, count"
scalar MeshLAN.host[0].pingApp[13] pingTxSeq:count 300
attr interpolationmode none
attr title "ping tx seq, count"
scalar MeshLAN.host[0].pingApp[13] numOutOfOrderArrivals:last nan
attr interpolationmode none
attr title "ping out-of-order arrivals, last"
scalar MeshLAN.host[0].pingApp[13] numLost:last nan
attr interpolationmode none
attr title "pings lost, last"
scalar MeshLAN.host[0].pingApp[13] rtt:mean 0.00037662026757627
attr interpolationmode none
attr title "ping round-trip time, mean"
attr unit s
scalar MeshLAN.host[0].pingApp[14] "Pings sent" 383
scalar MeshLAN.host[0].pingApp[14] "ping loss rate (%)" 0
scalar MeshLAN.host[0].pingApp[14] "ping out-of-order rate (%)" 0
scalar MeshLAN.host[0].pingApp[14] pingRxSeq:count 287
attr interpolationmode none
attr title "ping rx seq, count"
scalar MeshLAN.host[0].pingApp[14] pingTxSeq:count 287
attr interpolationmode none
attr title "ping tx seq, count"
scalar MeshLAN.host[0].pingApp[14] numOutOfOrderArrivals:last nan
attr interpolationmode none
attr title "ping out-of-order arrivals, last"
scalar MeshLAN.host[0].pingApp[14] numLost:last nan
attr interpolationmode none
attr title "pings lost, last"
scalar MeshLAN.host[0].pingApp[14] rtt:mean 0.00040462236272125
attr interpolationmode none
attr title "ping round-trip time, mean"
attr unit s
scalar MeshLAN.host[0].pingApp[15] "Pings sent" 370
scalar MeshLAN.host[0].pingApp[15] "ping loss rate (%)" 0
scalar MeshLAN.host[0].pingApp[15] "ping out-of-order rate (%)" 0
scalar MeshLAN.host[0].pingApp[15] pingRxSeq:count 282
attr interpolationmode none
attr title "ping rx seq, count"
scalar MeshLAN.host[0].pingApp[15] pingTxSeq:count 282
attr interpolationmode none
attr title "ping tx seq, count"
scalar MeshLAN.host[0].pingApp[15] numOutOfOrderArrivals:last nan
attr interpolationmode none
attr title "ping out-of-order arrivals, last"
scalar MeshLAN.host[0].pingApp[15] numLost:last nan
attr interpolationmode none
attr title "pings lost, last"
scalar MeshLAN.host[0].pingApp[15] rtt:mean 0.00029023287113167
attr interpolationmode none
attr title "ping round-trip time, mean"
attr unit s
scalar MeshLAN.host[0].pingApp[16] "Pings sent" 390
scalar MeshLAN.host[0].pingApp[16] "ping loss rate (%)" 0
scalar MeshLAN.host[0].pingApp[16] "ping out-of-order rate (%)" 0
scalar MeshLAN.host[0].pingApp[16] pingRxSeq:count 293
attr interpolationmode none
attr title "ping rx seq, count"
scalar MeshLAN.host[0].pingApp[16] pingTxSeq:count 293
attr interpolationmode none
attr title "ping tx seq, count"
scalar MeshLAN.host[0].pingApp[16] numOutOfOrderArrivals:last nan
attr interpolationmode none
attr title "ping out-of-order arrivals, last"
scalar MeshLAN.host[0].pingApp[16] numLost:last nan
attr interpolationmode none
attr title "pings lost, last"
scalar MeshLAN.host[0].pingApp[16] rtt:mean 0.00038605837974315
attr interpolationmode none
attr title "ping round-trip time, mean"
attr unit s
scalar MeshLAN.host[0].pingApp[17] "Pings sent" 398
scalar MeshLAN.host[0].pingApp[17] "ping loss rate (%)" 0
scalar MeshLAN.host[0].pingApp[17] "ping out-of-order rate (%)" 0
scalar MeshLAN.host[0].pingApp[17] pingRxSeq:count 303
attr interpolationmode none
attr title "ping rx seq, count"
scalar MeshLAN.host[0].pingApp[17] pingTxSeq:count 303
attr interpolationmode none
attr title "ping tx seq, count"
scalar MeshLAN.host[0].pingApp[17] numOutOfOrderArrivals:last nan
attr interpolationmode none
attr title "ping out-of-order arrivals, last"
scalar MeshLAN.host[0].pingApp[17] numLost:last nan
attr interpolationmode none
attr title "pings lost, last"
scalar MeshLAN.host[0].pingApp[17] rtt:mean 0.00040041903329667
attr interpolationmode none
attr title "ping round-trip time, mean"
attr unit s
scalar MeshLAN.host[0].pingApp[18] "Pings sent" 391
scalar MeshLAN.host[0].pingApp[18] "ping loss rate (%)" 0
scalar MeshLAN.host[0].pingApp[18] "ping out-of-order rate (%)" 0
scalar MeshLAN.host[0].pingApp[18] pingRxSeq:count 295
attr interpolationmode none
attr title "ping rx seq, count"
scalar MeshLAN.host[0].pingApp[18] pingTxSeq:count 295
attr interpolationmode none
attr title "ping tx seq, count"
scalar MeshLAN.host[0].pingApp[18] numOutOfOrderArrivals:last nan
attr interpolationmode none
attr title "ping out-of-order arrivals, last"
scalar MeshLAN.host[0].pingApp[18] numLost:last nan
attr interpolationmode none
attr title "pings lost, last"
scalar MeshLAN.host[0].pingApp[18] rtt:mean 8.6004503394558e-005
attr interpolationmode none
attr title "ping round-trip time, mean"
attr unit s
scalar MeshLAN.host[0].pingApp[19] "Pings sent" 387
scalar MeshLAN.host[0].pingApp[19] "ping loss rate (%)" 0
scalar MeshLAN.host[0].pingApp[19] "ping out-of-order rate (%)" 0
scalar MeshLAN.host[0].pingApp[19] pingRxSeq:count 289
attr interpolationmode none
attr title "ping rx seq, count"
scalar MeshLAN.host[0].pingApp[19] pingTxSeq:count 289
attr interpolationmode none
attr title "ping tx seq, count"
scalar MeshLAN.host[0].pingApp[19] numOutOfOrderArrivals:last nan
attr interpolationmode none
attr title "ping out-of-order arrivals, last"
scalar MeshLAN.host[0].pingApp[19] numLost:last nan
attr interpolationmode none
attr title "pings lost, last"
scalar MeshLAN.host[0].pingApp[19] rtt:mean 0.00015913596530769
attr interpolationmode none
attr title "ping round-trip time, mean"
attr unit s
scalar MeshLAN.host[0].pingApp[20] "Pings sent" 383
scalar MeshLAN.host[0].pingApp[20] "ping loss rate (%)" 0
scalar MeshLAN.host[0].pingApp[20] "ping out-of-order rate (%)" 0
scalar MeshLAN.host[0].pingApp[20] pingRxSeq:count 286
attr interpolationmode none
attr title "ping rx seq, count"
scalar MeshLAN.host[0].pingApp[20] pingTxSeq:count 286
attr interpolationmode none
attr title "ping tx seq, count"
scalar MeshLAN.host[0].pingApp[20] numOutOfOrderArrivals:last nan
attr interpolationmode none
attr title "ping out-of-order arrivals, last"
scalar MeshLAN.host[0].pingApp[20] numLost:last nan
attr interpolationmode none
attr title "pings lost, last"
scalar MeshLAN.host[0].pingApp[20] rtt:mean 0.0002655725621032
attr interpolationmode none
attr title "ping round-trip time, mean"
attr unit s
scalar MeshLAN.host[0].pingApp[21] "Pings sent" 384
scalar MeshLAN.host[0].pingApp[21] "ping loss rate (%)" 0
scalar MeshLAN.host[0].pingApp[21] "ping out-of-order rate (%)" 0
scalar MeshLAN.host[0].pingApp[21] pingRxSeq:count 285
attr interpolationmode none
attr title "ping rx seq, count"
scalar MeshLAN.host[0].pingApp[21] pingTxSeq:count 285
attr interpolationmode none
attr title "ping tx seq, count"
scalar MeshLAN.host[0].pingApp[21] numOutOfOrderArrivals:last nan
attr interpolationmode none
attr title "ping out-of-order arrivals, last"
scalar MeshLAN.host[0].pingApp[21] numLost:last nan
attr interpolationmode none
attr title "pings lost, last"
scalar MeshLAN.host[0].pingApp[21] rtt:mean 0.00038356006864184
attr interpolationmode none
attr title "ping round-trip time, mean"
attr unit s
scalar MeshLAN.host[0].pingApp[22] "Pings sent" 388
scalar MeshLAN.host[0].pingApp[22] "ping loss rate (%)" 0
scalar MeshLAN.host[0].pingApp[22] "ping out-of-order rate (%)" 0
scalar MeshLAN.host[0].pingApp[22] pingRxSeq:count 296
attr interpolationmode none
attr title "ping rx seq, count"
scalar MeshLAN.host[0].pingApp[22] pingTxSeq:count 296
attr interpolationmode none
attr title "ping tx seq, count"
scalar MeshLAN.host[0].pingApp[22] numOutOfOrderArrivals:last nan
attr interpolationmode none
attr title "ping out-of-order arrivals, last"
scalar MeshLAN.host[0].pingApp[22] numLost:last nan
attr interpolationmode none
attr title "pings lost, last"
scalar MeshLAN.host[0].pingApp[22] rtt:mean 0.00017592409794576
attr interpolationmode none
attr title "ping round-trip time, mean"
attr unit s
scalar MeshLAN.host[0].pingApp[23] "Pings sent" 366
scalar MeshLAN.host[0].pingApp[23] "ping loss rate (%)" 0
scalar MeshLAN.host[0].pingApp[23] "ping out-of-order rate (%)" 0
scalar MeshLAN.host[0].pingApp[23] pingRxSeq:count 276
attr interpolationmode none
attr title "ping rx seq, count"
scalar MeshLAN.host[0].pingApp[23] pingTxSeq:count 276
attr interpolationmode none
attr title "ping tx seq, count"
scalar MeshLAN.host[0].pingApp[23] numOutOfOrderArrivals:last nan
attr interpolationmode none
attr title "ping out-of-order arrivals, last"
scalar MeshLAN.host[0].pingApp[23] numLost:last nan
attr interpolationmode none
attr title "pings lost, last"
scalar MeshLAN.host[0].pingApp[23] rtt:mean 0.00041040739248
attr interpolationmode none
attr title "ping round-trip time, mean"
attr unit s
scalar MeshLAN.host[0].pingApp[24] "Pings sent" 380
scalar MeshLAN.host[0].pingApp[24] "ping loss rate (%)" 0
scalar MeshLAN.host[0].pingApp[24] "ping out-of-order rate (%)" 0
scalar MeshLAN.host[0].pingApp[24] pingRxSeq:count 289
attr interpolationmode none
attr title "ping rx seq, count"
scalar MeshLAN.host[0].pingApp[24] pingTxSeq:count 289
attr interpolationmode none
attr title "ping tx seq, count"
scalar MeshLAN.host[0].pingApp[24] numOutOfOrderArrivals:last nan
attr interpolationmode none
attr title "ping out-of-order arrivals, last"
scalar MeshLAN.host[0].pingApp[24] numLost:last nan
attr interpolationmode none
attr title "pings lost, last"
scalar MeshLAN.host[0].pingApp[24] rtt:mean 0.00026367890649301
attr interpolationmode none
attr title "ping round-trip time, mean"
attr unit s
scalar MeshLAN.host[0].pingApp[25] "Pings sent" 379
scalar MeshLAN.host[0].pingApp[25] "ping loss rate (%)" 0
scalar MeshLAN.host[0].pingApp[25] "ping out-of-order rate (%)" 0.26385224274406
scalar MeshLAN.host[0].pingApp[25] pingRxSeq:count 287
attr interpolationmode none
attr title "ping rx seq, count"
scalar MeshLAN.host[0].pingApp[25] pingTxSeq:count 287
attr interpolationmode none
attr title "ping tx seq, count"
scalar MeshLAN.host[0].pingApp[25] numOutOfOrderArrivals:last 1
attr interpolationmode none
attr title "ping out-of-order arrivals, last"
scalar MeshLAN.host[0].pingApp[25] numLost:last 0
attr interpolationmode none
attr title "pings lost, last"
scalar MeshLAN.host[0].pingApp[25] rtt:mean 0.0004620231325795
attr interpolationmode none
attr title "ping round-trip time, mean"
attr unit s
scalar MeshLAN.host[0].pingApp[26] "Pings sent" 389
scalar MeshLAN.host[0].pingApp[26] "ping loss rate (%)" 0
scalar MeshLAN.host[0].pingApp[26] "ping out-of-order rate (%)" 0
scalar MeshLAN.host[0].pingApp[26] pingRxSeq:count 294
attr interpolationmode none
attr title "ping rx seq, count"
scalar MeshLAN.host[0].pingApp[26] pingTxSeq:count 294
attr interpolationmode none
attr title "ping tx seq, count"
scalar MeshLAN.host[0].pingApp[26] numOutOfOrderArrivals:last nan
attr interpolationmode none
attr title "ping out-of-order arrivals, last"
scalar MeshLAN.host[0].pingApp[26] numLost:last nan
attr interpolationmode none
attr title "pings lost, last"
scalar MeshLAN.host[0].pingApp[26] rtt:mean 0.00030927660050515
attr interpolationmode none
attr title "ping round-trip time, mean"
attr unit s
scalar MeshLAN.host[0].pingApp[27] "Pings sent" 386
scalar MeshLAN.host[0].pingApp[27] "ping loss rate (%)" 0
scalar MeshLAN.host[0].pingApp[27] "ping out-of-order rate (%)" 0
scalar MeshLAN.host[0].pingApp[27] pingRxSeq:count 288
attr interpolationmode none
attr title "ping rx seq, count"
scalar MeshLAN.host[0].pingApp[27] pingTxSeq:count 288
attr interpolationmode none
attr title "ping tx seq, count"
scalar MeshLAN.host[0].pingApp[27] numOutOfOrderArrivals:last nan
attr interpolationmode none
attr title "ping out-of-order arrivals, last"
scalar MeshLAN.host[0].pingApp[27] numLost:last nan
attr interpolationmode none
attr title "pings lost, last"
scalar MeshLAN.host[0].pingApp[27] rtt:mean 0.00030068817055555
attr interpolationmode none
attr title "ping round-trip time, mean"
attr unit s
scalar MeshLAN.host[1].networkLayer.arp sentReply:count 0
attr title "ARP replies sent, count"
scalar MeshLAN.host[1].networkLayer.arp sentReq:count 0
attr title "ARP request sent, count"
scalar MeshLAN.host[1].networkLayer.arp failedARPResolution:count 0
attr title "ARP failed resolutions, count"
scalar MeshLAN.host[1].networkLayer.arp completedARPResolution:count 0
attr title "ARP completed resolutions, count"
scalar MeshLAN.host[1].networkLayer.arp initiatedARPResolution:count 0
attr title "ARP initiated resolutions, count"
scalar MeshLAN.host[1].lo0.lo droppedPkBitError:count 0
attr interpolationmode none
attr source dropPkBitError
attr title "packets dropped/bit error, count"
scalar MeshLAN.host[1].lo0.lo droppedPkBitError:sum(packetBytes) 0
attr interpolationmode none
attr source dropPkBitError
attr title "packets dropped/bit error, sum(packetBytes)"
scalar MeshLAN.host[1].lo0.lo rcvdPkFromHL:count 220
attr interpolationmode none
attr source packetReceivedFromUpper
attr title "packets received from higher layer, count"
scalar MeshLAN.host[1].lo0.lo rcvdPkFromHL:sum(packetBytes) 143524
attr interpolationmode none
attr source packetReceivedFromUpper
attr title "packets received from higher layer, sum(packetBytes)"
scalar MeshLAN.host[1].lo0.lo passedUpPk:count 220
attr interpolationmode none
attr source packetSentToUpper
attr title "packets passed to higher layer, count"
scalar MeshLAN.host[1].lo0.lo passedUpPk:sum(packetBytes) 143524
attr interpolationmode none
attr source packetSentToUpper
attr title "packets passed to higher layer, sum(packetBytes)"
scalar MeshLAN.host[1].eth[0].queue.pauseQueue queueLength:max nan
attr interpolationmode sample-hold
attr title "queue length, max"
scalar MeshLAN.host[1].eth[0].queue.pauseQueue queueLength:timeavg nan
attr interpolationmode sample-hold
attr title "queue length, timeavg"
statistic MeshLAN.host[1].eth[0].queue.pauseQueue queueingTime:histogram
field count 0
field mean nan
field stddev nan
field min nan
field max nan
field sum 0
field sqrsum 0
attr interpolationmode none
attr title "queueing time, histogram"
bin	-inf	0
bin	-0.5	0
bin	-0.46666666666667	0
bin	-0.43333333333333	0
bin	-0.4	0
bin	-0.36666666666667	0
bin	-0.33333333333333	0
bin	-0.3	0
bin	-0.26666666666667	0
bin	-0.23333333333333	0
bin	-0.2	0
bin	-0.16666666666667	0
bin	-0.13333333333333	0
bin	-0.1	0
bin	-0.066666666666667	0
bin	-0.033333333333333	0
bin	0	0
bin	0.033333333333333	0
bin	0.066666666666667	0
bin	0.1	0
bin	0.13333333333333	0
bin	0.16666666666667	0
bin	0.2	0
bin	0.23333333333333	0
bin	0.26666666666667	0
bin	0.3	0
bin	0.33333333333333	0
bin	0.36666666666667	0
bin	0.4	0
bin	0.43333333333333	0
bin	0.46666666666667	0
bin	0.5	0
scalar MeshLAN.host[1].eth[0].queue.pauseQueue dropPk:count 0
attr interpolationmode none
attr source dropPkByQueue
attr title "dropped packets, count"
scalar MeshLAN.host[1].eth[0].queue.pauseQueue dropPk:sum(packetBytes) 0
attr interpolationmode none
attr source dropPkByQueue
attr title "dropped packets, sum(packetBytes)"
scalar MeshLAN.host[1].eth[0].queue.pauseQueue rcvdPk:count 0
attr interpolationmode none
attr title "received packets, count"
scalar MeshLAN.host[1].eth[0].queue.pauseQueue rcvdPk:sum(packetBytes) 0
attr interpolationmode none
attr title "received packets, sum(packetBytes)"
scalar MeshLAN.host[1].eth[0].queue.dataQueue queueLength:max 5
attr interpolationmode sample-hold
attr title "queue length, max"
scalar MeshLAN.host[1].eth[0].queue.dataQueue queueLength:timeavg 0.026876854522665
attr interpolationmode sample-hold
attr title "queue length, timeavg"
statistic MeshLAN.host[1].eth[0].queue.dataQueue queueingTime:histogram
field count 13157
field mean 3.0640344778827e-005
field stddev 4.2084613470162e-005
field min 0
field max 0.000274620681
field sum 0.40313501625503
field sqrsum 3.5652980764386e-005
attr interpolationmode none
attr title "queueing time, histogram"
bin	-inf	0
bin	-8.464e-005	0
bin	-7.3354666666667e-005	0
bin	-6.2069333333333e-005	0
bin	-5.0784e-005	0
bin	-3.9498666666667e-005	0
bin	-2.8213333333333e-005	0
bin	-1.6928e-005	0
bin	-5.6426666666667e-006	8395
bin	5.6426666666667e-006	37
bin	1.6928e-005	60
bin	2.8213333333333e-005	39
bin	3.9498666666667e-005	49
bin	5.0784e-005	40
bin	6.2069333333333e-005	36
bin	7.3354666666667e-005	24
bin	8.464e-005	4258
bin	9.5925333333333e-005	41
bin	0.00010721066666667	34
bin	0.000118496	28
bin	0.00012978133333333	20
bin	0.00014106666666667	16
bin	0.000152352	14
bin	0.00016363733333333	42
bin	0.00017492266666667	11
bin	0.000186208	5
bin	0.00019749333333333	3
bin	0.00020877866666667	2
bin	0.000220064	0
bin	0.00023134933333333	0
bin	0.00024263466666667	2
bin	0.00025392	1
scalar MeshLAN.host[1].eth[0].queue.dataQueue dropPk:count 0
attr interpolationmode none
attr source dropPkByQueue
attr title "dropped packets, count"
scalar MeshLAN.host[1].eth[0].queue.dataQueue dropPk:sum(packetBytes) 0
attr interpolationmode none
attr source dropPkByQueue
attr title "dropped packets, sum(packetBytes)"
scalar MeshLAN.host[1].eth[0].queue.dataQueue rcvdPk:count 13157
attr interpolationmode none
attr title "received packets, count"
scalar MeshLAN.host[1].eth[0].queue.dataQueue rcvdPk:sum(packetBytes) 8624667
attr interpolationmode none
attr title "received packets, sum(packetBytes)"
scalar MeshLAN.host[1].eth[0].mac "simulated time" 20
scalar MeshLAN.host[1].eth[0].mac full-duplex 1
scalar MeshLAN.host[1].eth[0].mac "frames/sec sent" 868.4
scalar MeshLAN.host[1].eth[0].mac "frames/sec rcvd" 868.4
scalar MeshLAN.host[1].eth[0].mac "bits/sec sent" 4553326.4
scalar MeshLAN.host[1].eth[0].mac "bits/sec rcvd" 4553326.4
scalar MeshLAN.host[1].eth[0].mac "rx channel idle (%)" 95.391096
scalar MeshLAN.host[1].eth[0].mac "rx channel utilization (%)" 4.608904
scalar MeshLAN.host[1].eth[0].mac rxPkFromHL:count 13157
attr interpolationmode none
attr source rxPkFromHL
attr title "packet bytes from higher layer, count"
scalar MeshLAN.host[1].eth[0].mac rxPkFromHL:sum(packetBytes) 8624667
attr interpolationmode none
attr source rxPkFromHL
attr title "packet bytes from higher layer, sum(packetBytes)"
scalar MeshLAN.host[1].eth[0].mac rxPausePkUnits:count 0
attr interpolationmode none
attr title "pause units received, count"
scalar MeshLAN.host[1].eth[0].mac rxPausePkUnits:sum 0
attr interpolationmode none
attr title "pause units received, sum"
scalar MeshLAN.host[1].eth[0].mac txPausePkUnits:count 0
attr interpolationmode none
attr title "pause units sent, count"
scalar MeshLAN.host[1].eth[0].mac txPausePkUnits:sum 0
attr interpolationmode none
attr title "pause units sent, sum"
scalar MeshLAN.host[1].eth[0].mac txPk:count 13157
attr interpolationmode none
attr source txPk
attr title "packets transmitted, count"
scalar MeshLAN.host[1].eth[0].mac txPk:sum(packetBytes) 8624667
attr interpolationmode none
attr source txPk
attr title "packets transmitted, sum(packetBytes)"
scalar MeshLAN.host[1].eth[0].mac droppedPkNotForUs:count 0
attr interpolationmode none
attr source dropPkNotForUs
attr title "packets dropped/not for us, count"
scalar MeshLAN.host[1].eth[0].mac droppedPkNotForUs:sum(packetBytes) 0
attr interpolationmode none
attr source dropPkNotForUs
attr title "packets dropped/not for us, sum(packetBytes)"
scalar MeshLAN.host[1].eth[0].mac droppedPkBitError:count 0
attr interpolationmode none
attr source dropPkBitError
attr title "packets dropped/bit error, count"
scalar MeshLAN.host[1].eth[0].mac droppedPkBitError:sum(packetBytes) 0
attr interpolationmode none
attr source dropPkBitError
attr title "packets dropped/bit error, sum(packetBytes)"
scalar MeshLAN.host[1].eth[0].mac droppedPkIfaceDown:count 0
attr interpolationmode none
attr source dropPkIfaceDown
attr title "packets dropped/interface down, count"
scalar MeshLAN.host[1].eth[0].mac droppedPkIfaceDown:sum(packetBytes) 0
attr interpolationmode none
attr source dropPkIfaceDown
attr title "packets dropped/interface down, sum(packetBytes)"
scalar MeshLAN.host[1].eth[0].mac rxPkOk:count 13157
attr interpolationmode none
attr source rxPkOk
attr title "packets received OK, count"
scalar MeshLAN.host[1].eth[0].mac rxPkOk:sum(packetBytes) 8624667
attr interpolationmode none
attr source rxPkOk
attr title "packets received OK, sum(packetBytes)"
scalar MeshLAN.host[1].eth[0].mac passedUpPk:count 13157
attr interpolationmode none
attr source packetSentToUpper
attr title "packets passed to higher layer, count"
scalar MeshLAN.host[1].eth[0].mac passedUpPk:sum(packetBytes) 8624667
attr interpolationmode none
attr source packetSentToUpper
attr title "packets passed to higher layer, sum(packetBytes)"
scalar MeshLAN.host[1].eth[0].encap pauseSent:count 0
attr title "pause sent, count"
scalar MeshLAN.host[1].eth[0].encap pauseSent:sum 0
attr title "pause sent, sum"
scalar MeshLAN.host[1].eth[0].encap decapPk:count 13157
attr interpolationmode none
attr source decapPk
attr title "packets decapsulated, count"
scalar MeshLAN.host[1].eth[0].encap decapPk:sum(packetBytes) 8386326
attr interpolationmode none
attr source decapPk
attr title "packets decapsulated, sum(packetBytes)"
scalar MeshLAN.host[1].eth[0].encap encapPk:count 13157
attr interpolationmode none
attr source encapPk
attr title "packets encapsulated, count"
scalar MeshLAN.host[1].eth[0].encap encapPk:sum(packetBytes) 8386326
attr interpolationmode none
attr source encapPk
attr title "packets encapsulated, sum(packetBytes)"
scalar MeshLAN.host[1].pingApp[0] "Pings sent" 377
scalar MeshLAN.host[1].pingApp[0] "ping loss rate (%)" 0
scalar MeshLAN.host[1].pingApp[0] "ping out-of-order rate (%)" 0
scalar MeshLAN.host[1].pingApp[0] pingRxSeq:count 283
attr interpolationmode none
attr title "ping rx seq, count"
scalar MeshLAN.host[1].pingApp[0] pingTxSeq:count 283
attr interpolationmode none
attr title "ping tx seq, count"
scalar MeshLAN.host[1].pingApp[0] numOutOfOrderArrivals:last nan
attr interpolationmode none
attr title "ping out-of-order arrivals, last"
scalar MeshLAN.host[1].pingApp[0] numLost:last nan
attr interpolationmode none
attr title "pings lost, last"
scalar MeshLAN.host[1].pingApp[0] rtt:mean 0.00039865946062278
attr interpolationmode none
attr title "ping round-trip time, mean"
attr unit s
scalar MeshLAN.host[1].pingApp[1] "Pings sent" 396
scalar MeshLAN.host[1].pingApp[1] "ping loss rate (%)" 0
scalar MeshLAN.host[1].pingApp[1] "ping out-of-order rate (%)" 0
scalar MeshLAN.host[1].pingApp[1] pingRxSeq:count 299
attr interpolationmode none
attr title "ping rx seq, count"
scalar MeshLAN.host[1].pingApp[1] pingTxSeq:count 299
attr interpolationmode none
attr title "ping tx seq, count"
scalar MeshLAN.host[1].pingApp[1] numOutOfOrderArrivals:last nan
attr interpolationmode none
attr title "ping out-of-order arrivals, last"
scalar MeshLAN.host[1].pingApp[1] numLost:last nan
attr interpolationmode none
attr title "pings lost, last"
scalar MeshLAN.host[1].pingApp[1] rtt:mean 0.00037720428614716
attr interpolationmode none
attr title "ping round-trip time, mean"
attr unit s
scalar MeshLAN.host[1].pingApp[2] "Pings sent" 396
scalar MeshLAN.host[1].pingApp[2] "ping loss rate (%)" 0
scalar MeshLAN.host[1].pingApp[2] "ping out-of-order rate (%)" 0
scalar MeshLAN.host[1].pingApp[2] pingRxSeq:count 293
attr interpolationmode none
attr title "ping rx seq, count"
scalar MeshLAN.host[1].pingApp[2] pingTxSeq:count 293
attr interpolationmode none
attr title "ping tx seq, count"
scalar MeshLAN.host[1].pingApp[2] numOutOfOrderArrivals:last nan
attr interpolationmode none
attr title "ping out-of-order arrivals, last"
scalar MeshLAN.host[1].pingApp[2] numLost:last nan
attr interpolationmode none
attr title "pings lost, last"
scalar MeshLAN.host[1].pingApp[2] rtt:mean 0.00042973007556897
attr interpolationmode none
attr title "ping round-trip time, mean"
attr unit s
scalar MeshLAN.host[1].pingApp[3] "Pings sent" 368
scalar MeshLAN.host[1].pingApp[3] "ping loss rate (%)" 0
scalar MeshLAN.host[1].pingApp[3] "ping out-of-order rate (%)" 0
scalar MeshLAN.host[1].pingApp[3] pingRxSeq:count 289
attr interpolationmode none
attr title "ping rx seq, count"
scalar MeshLAN.host[1].pingApp[3] pingTxSeq:count 289
attr interpolationmode none
attr title "ping tx seq, count"
scalar MeshLAN.host[1].pingApp[3] numOutOfOrderArrivals:last nan
attr interpolationmode none
attr title "ping out-of-order arrivals, last"
scalar MeshLAN.host[1].pingApp[3] numLost:last nan
attr interpolationmode none
attr title "pings lost, last"
scalar MeshLAN.host[1].pingApp[3] rtt:mean 0.00018503528771528
attr interpolationmode none
attr title "ping round-trip time, mean"
attr unit s
scalar MeshLAN.host[1].pingApp[4] "Pings sent" 379
scalar MeshLAN.host[1].pingApp[4] "ping loss rate (%)" 0
scalar MeshLAN.host[1].pingApp[4] "ping out-of-order rate (%)" 0
scalar MeshLAN.host[1].pingApp[4] pingRxSeq:count 292
attr interpolationmode none
attr title "ping rx seq, count"
scalar MeshLAN.host[1].pingApp[4] pingTxSeq:count 292
attr interpolationmode none
attr title "ping tx seq, count"
scalar MeshLAN.host[1].pingApp[4] numOutOfOrderArrivals:last nan
attr interpolationmode none
attr title "ping out-of-order arrivals, last"
scalar MeshLAN.host[1].pingApp[4] numLost:last nan
attr interpolationmode none
attr title "pings lost, last"
scalar MeshLAN.host[1].pingApp[4] rtt:mean 0.00044863684722569
attr interpolationmode none
attr title "ping round-trip time, mean"
attr unit s
scalar MeshLAN.host[1].pingApp[5] "Pings sent" 386
scalar MeshLAN.host[1].pingApp[5] "ping loss rate (%)" 0
scalar MeshLAN.host[1].pingApp[5] "ping out-of-order rate (%)" 0
scalar MeshLAN.host[1].pingApp[5] pingRxSeq:count 292
attr interpolationmode none
attr title "ping rx seq, count"
scalar MeshLAN.host[1].pingApp[5] pingTxSeq:count 292
attr interpolationmode none
attr title "ping tx seq, count"
scalar MeshLAN.host[1].pingApp[5] numOutOfOrderArrivals:last nan
attr interpolationmode none
attr title "ping out-of-order arrivals, last"
scalar MeshLAN.host[1].pingApp[5] numLost:last nan
attr interpolationmode none
attr title "pings lost, last"
scalar MeshLAN.host[1].pingApp[5] rtt:mean 0.0003841840180411
attr interpolationmode none
attr title "ping round-trip time, mean"
attr unit s
scalar MeshLAN.host[1].pingApp[6] "Pings sent" 374
scalar MeshLAN.host[1].pingApp[6] "ping loss rate (%)" 0
scalar MeshLAN.host[1].pingApp[6] "ping out-of-order rate (%)" 0
scalar MeshLAN.host[1].pingApp[6] pingRxSeq:count 285
attr interpolationmode none
attr title "ping rx seq, count"
scalar MeshLAN.host[1].pingApp[6] pingTxSeq:count 285
attr interpolationmode none
attr title "ping tx seq, count"
scalar MeshLAN.host[1].pingApp[6] numOutOfOrderArrivals:last nan
attr interpolationmode none
attr title "ping out-of-order arrivals, last"
scalar MeshLAN.host[1].pingApp[6] numLost:last nan
attr interpolationmode none
attr title "pings lost, last"
scalar MeshLAN.host[1].pingApp[6] rtt:mean 0.00043719327458657
attr interpolationmode none
attr title "ping round-trip time, mean"
attr unit s
scalar MeshLAN.host[1].pingApp[7] "Pings sent" 383
scalar MeshLAN.host[1].pingApp[7] "ping loss rate (%)" 0
scalar MeshLAN.host[1].pingApp[7] "ping out-of-order rate (%)" 0
scalar MeshLAN.host[1].pingApp[7] pingRxSeq:count 285
attr interpolationmode none
attr title "ping rx seq, count"
scalar MeshLAN.host[1].pingApp[7] pingTxSeq:count 285
attr interpolationmode none
attr title "ping tx seq, count"
scalar MeshLAN.host[1].pingApp[7] numOutOfOrderArrivals:last nan
attr interpolationmode none
attr title "ping out-of-order arrivals, last"
scalar MeshLAN.host[1].pingApp[7] numLost:last nan
attr interpolationmode none
attr title "pings lost, last"
scalar MeshLAN.host[1].pingApp[7] rtt:mean 0.00037856192580212
attr interpolationmode none
attr title "ping round-trip time, mean"
attr unit s
scalar MeshLAN.host[1].pingApp[8] "Pings sent" 387
scalar MeshLAN.host[1].pingApp[8] "ping loss rate (%)" 0
scalar MeshLAN.host[1].pingApp[8] "ping out-of-order rate (%)" 0
scalar MeshLAN.host[1].pingApp[8] pingRxSeq:count 290
attr interpolationmode none
attr title "ping rx seq, count"
scalar MeshLAN.host[1].pingApp[8] pingTxSeq:count 290
attr interpolationmode none
attr title "ping tx seq, count"
scalar MeshLAN.host[1].pingApp[8] numOutOfOrderArrivals:last nan
attr interpolationmode none
attr title "ping out-of-order arrivals, last"
scalar MeshLAN.host[1].pingApp[8] numLost:last nan
attr interpolationmode none
attr title "pings lost, last"
scalar MeshLAN.host[1].pingApp[8] rtt:mean 0.00019026764340278
attr interpolationmode none
attr title "ping round-trip time, mean"
attr unit s
scalar MeshLAN.host[1].pingApp[9] "Pings sent" 394
scalar MeshLAN.host[1].pingApp[9] "ping loss rate (%)" 0
scalar MeshLAN.host[1].pingApp[9] "ping out-of-order rate (%)" 0
scalar MeshLAN.host[1].pingApp[9] pingRxSeq:count 295
attr interpolationmode none
attr title "ping rx seq, count"
scalar MeshLAN.host[1].pingApp[9] pingTxSeq:count 295
attr interpolationmode none
attr title "ping tx seq, count"
scalar MeshLAN.host[1].pingApp[9] numOutOfOrderArrivals:last nan
attr interpolationmode none
attr title "ping out-of-order arrivals, last"
scalar MeshLAN.host[1].pingApp[9] numLost:last nan
attr interpolationmode none
attr title "pings lost, last"
scalar MeshLAN.host[1].pingApp[9] rtt:mean 0.00010994363052881
attr interpolationmode none
attr title "ping round-trip time, mean"
attr unit s
scalar MeshLAN.host[1].pingApp[10] "Pings sent" 398
scalar MeshLAN.host[1].pingApp[10] "ping loss rate (%)" 0
scalar MeshLAN.host[1].pingApp[10] "ping out-of-order rate (%)" 0
scalar MeshLAN.host[1].pingApp[10] pingRxSeq:count 309
attr interpolationmode none
attr title "ping rx seq, count"
scalar MeshLAN.host[1].pingApp[10] pingTxSeq:count 309
attr interpolationmode none
attr title "ping tx seq, count"
scalar MeshLAN.host[1].pingApp[10] numOutOfOrderArrivals:last nan
attr interpolationmode none
attr title "ping out-of-order arrivals, last"
scalar MeshLAN.host[1].pingApp[10] numLost:last nan
attr interpolationmode none
attr title "pings lost, last"
scalar MeshLAN.host[1].pingApp[10] rtt:mean 0.00017604479464262
attr interpolationmode none
attr title "ping round-trip time, mean"
attr unit s
scalar MeshLAN.host[1].pingApp[11] "Pings sent" 402
scalar MeshLAN.host[1].pingApp[11] "ping loss rate (%)" 0
scalar MeshLAN.host[1].pingApp[11] "ping out-of-order rate (%)" 0
scalar MeshLAN.host[1].pingApp[11] pingRxSeq:count 299
attr interpolationmode none
attr title "ping rx seq, count"
scalar MeshLAN.host[1].pingApp[11] pingTxSeq:count 299
attr interpolationmode none
attr title "ping tx seq, count"
scalar MeshLAN.host[1].pingApp[11] numOutOfOrderArrivals:last nan
attr interpolationmode none
attr title "ping out-of-order arrivals, last"
scalar MeshLAN.host[1].pingApp[11] numLost:last nan
attr interpolationmode none
attr title "pings lost, last"
scalar MeshLAN.host[1].pingApp[11] rtt:mean 0.0002225987964396
attr interpolationmode none
attr title "ping round-trip time, mean"
attr unit s
scalar MeshLAN.host[1].pingApp[12] "Pings sent" 391
scalar MeshLAN.host[1].pingApp[12] "ping loss rate (%)" 0
scalar MeshLAN.host[1].pingApp[12] "ping out-of-order rate (%)" 0
scalar MeshLAN.host[1].pingApp[12] pingRxSeq:count 296
attr interpolationmode none
attr title "ping rx seq, count"
scalar MeshLAN.host[1].pingApp[12] pingTxSeq:count 296
attr interpolationmode none
attr title "ping tx seq, count"
scalar MeshLAN.host[1].pingApp[12] numOutOfOrderArrivals:last nan
attr interpolationmode none
attr title "ping out-of-order arrivals, last"
scalar MeshLAN.host[1].pingApp[12] numLost:last nan
attr interpolationmode none
attr title "pings lost, last"
scalar MeshLAN.host[1].pingApp[12] rtt:mean 0.0001867024415137
attr interpolationmode none
attr title "ping round-trip time, mean"
attr unit s
scalar MeshLAN.host[1].pingApp[13] "Pings sent" 391
scalar MeshLAN.host[1].pingApp[13] "ping loss rate (%)" 0
scalar MeshLAN.host[1].pingApp[13] "ping out-of-order rate (%)" 0
scalar MeshLAN.host[1].pingApp[13] pingRxSeq:count 291
attr interpolationmode none
attr title "ping rx seq, count"
scalar MeshLAN.host[1].pingApp[13] pingTxSeq:count 291
attr interpolationmode none
attr title "ping tx seq, count"
scalar MeshLAN.host[1].pingApp[13] numOutOfOrderArrivals:last nan
attr interpolationmode none
attr title "ping out-of-order arrivals, last"
scalar MeshLAN.host[1].pingApp[13] numLost:last nan
attr interpolationmode none
attr title "pings lost, last"
scalar MeshLAN.host[1].pingApp[13] rtt:mean 0.00026440738808362
attr interpolationmode none
attr title "ping round-trip time, mean"
attr unit s
scalar MeshLAN.host[1].pingApp[14] "Pings sent" 377
scalar MeshLAN.host[1].pingApp[14] "ping loss rate (%)" 0
scalar MeshLAN.host[1].pingApp[14] "ping out-of-order rate (%)" 0
scalar MeshLAN.host[1].pingApp[14] pingRxSeq:count 294
attr interpolationmode none
attr title "ping rx seq, count"
scalar MeshLAN.host[1].pingApp[14] pingTxSeq:count 294
attr interpolationmode none
attr title "ping tx seq, count"
scalar MeshLAN.host[1].pingApp[14] numOutOfOrderArrivals:last nan
attr interpolationmode none
attr title "ping out-of-order arrivals, last"
scalar MeshLAN.host[1].pingApp[14] numLost:last nan
attr interpolationmode none
attr title "pings lost, last"
scalar MeshLAN.host[1].pingApp[14] rtt:mean 0.00042686136386987
attr interpolationmode none
attr title "ping round-trip time, mean"
attr unit s
scalar MeshLAN.host[1].pingApp[15] "Pings sent" 381
scalar MeshLAN.host[1].pingApp[15] "ping loss rate (%)" 0
scalar MeshLAN.host[1].pingApp[15] "ping out-of-order rate (%)" 0
scalar MeshLAN.host[1].pingApp[15] pingRxSeq:count 293
attr interpolationmode none
attr title "ping rx seq, count"
scalar MeshLAN.host[1].pingApp[15] pingTxSeq:count 293
attr interpolationmode none
attr title "ping tx seq, count"
scalar MeshLAN.host[1].pingApp[15] numOutOfOrderArrivals:last nan
attr interpolationmode none
attr title "ping out-of-order arrivals, last"
scalar MeshLAN.host[1].pingApp[15] numLost:last nan
attr interpolationmode none
attr title "pings lost, last"
scalar MeshLAN.host[1].pingApp[15] rtt:mean 0.00011246151802055
attr interpolationmode none
attr title "ping round-trip time, mean"
attr unit s
scalar MeshLAN.host[1].pingApp[16] "Pings sent" 392
scalar MeshLAN.host[1].pingApp[16] "ping loss rate (%)" 0
scalar MeshLAN.host[1].pingApp[16] "ping out-of-order rate (%)" 0
scalar MeshLAN.host[1].pingApp[16] pingRxSeq:count 300
attr interpolationmode none
attr title "ping rx seq, count"
scalar MeshLAN.host[1].pingApp[16] pingTxSeq:count 300
attr interpolationmode none
attr title "ping tx seq, count"
scalar MeshLAN.host[1].pingApp[16] numOutOfOrderArrivals:last nan
attr interpolationmode none
attr title "ping out-of-order arrivals, last"
scalar MeshLAN.host[1].pingApp[16] numLost:last nan
attr interpolationmode none
attr title "pings lost, last"
scalar MeshLAN.host[1].pingApp[16] rtt:mean 0.00036655237846154
attr interpolationmode none
attr title "ping round-trip time, mean"
attr unit s
scalar MeshLAN.host[1].pingApp[17] "Pings sent" 384
scalar MeshLAN.host[1].pingApp[17] "ping loss rate (%)" 0
scalar MeshLAN.host[1].pingApp[17] "ping out-of-order rate (%)" 0
scalar MeshLAN.host[1].pingApp[17] pingRxSeq:count 285
attr interpolationmode none
attr title "ping rx seq, count"
scalar MeshLAN.host[1].pingApp[17] pingTxSeq:count 285
attr interpolationmode none
attr title "ping tx seq, count"
scalar MeshLAN.host[1].pingApp[17] numOutOfOrderArrivals:last nan
attr interpolationmode none
attr title "ping out-of-order arrivals, last"
scalar MeshLAN.host[1].pingApp[17] numLost:last nan
attr interpolationmode none
attr title "pings lost, last"
scalar MeshLAN.host[1].pingApp[17] rtt:mean 0.00024109273243929
attr interpolationmode none
attr title "ping round-trip time, mean"
attr unit s
scalar MeshLAN.host[1].pingApp[18] "Pings sent" 388
scalar MeshLAN.host[1].pingApp[18] "ping loss rate (%)" 0
scalar MeshLAN.host[1].pingApp[18] "ping out-of-order rate (%)" 0
scalar MeshLAN.host[1].pingApp[18] pingRxSeq:count 291
attr interpolationmode none
attr title "ping rx seq, count"
scalar MeshLAN.host[1].pingApp[18] pingTxSeq:count 291
attr interpolationmode none
attr title "ping tx seq, count"
scalar MeshLAN.host[1].pingApp[18] numOutOfOrderArrivals:last nan
attr interpolationmode none
attr title "ping out-of-order arrivals, last"
scalar MeshLAN.host[1].pingApp[18] numLost:last nan
attr interpolationmode none
attr title "pings lost, last"
scalar MeshLAN.host[1].pingApp[18] rtt:mean 0.00022599855210764
attr interpolationmode none
attr title "ping round-trip time, mean"
attr unit s
scalar MeshLAN.host[1].pingApp[19] "Pings sent" 381
scalar MeshLAN.host[1].pingApp[19] "ping loss rate (%)" 0
scalar MeshLAN.host[1].pingApp[19] "ping out-of-order rate (%)" 0
scalar MeshLAN.host[1].pingApp[19] pingRxSeq:count 292
attr interpolationmode none
attr title "ping rx seq, count"
scalar MeshLAN.host[1].pingApp[19] pingTxSeq:count 292
attr interpolationmode none
attr title "ping tx seq, count"
scalar MeshLAN.host[1].pingApp[19] numOutOfOrderArrivals:last nan
attr interpolationmode none
attr title "ping out-of-order arrivals, last"
scalar MeshLAN.host[1].pingApp[19] numLost:last nan
attr interpolationmode none
attr title "pings lost, last"
scalar MeshLAN.host[1].pingApp[19] rtt:mean 0.00037424796510345
attr interpolationmode none
attr title "ping round-trip time, mean"
attr unit s
scalar MeshLAN.host[1].pingApp[20] "Pings sent" 390
scalar MeshLAN.host[1].pingApp[20] "ping loss rate (%)" 0
scalar MeshLAN.host[1].pingApp[20] "ping out-of-order rate (%)" 0
scalar MeshLAN.host[1].pingApp[20] pingRxSeq:count 292
attr interpolationmode none
attr title "ping rx seq, count"
scalar MeshLAN.host[1].pingApp[20] pingTxSeq:count 292
attr interpolationmode none
attr title "ping tx seq, count"
scalar MeshLAN.host[1].pingApp[20] numOutOfOrderArrivals:last nan
attr interpolationmode none
attr title "ping out-of-order arrivals, last"
scalar MeshLAN.host[1].pingApp[20] numLost:last nan
attr interpolationmode none
attr title "pings lost, last"
scalar MeshLAN.host[1].pingApp[20] rtt:mean 0.00034997670315571
attr interpolationmode none
attr title "ping round-trip time, mean"
attr unit s
scalar MeshLAN.host[1].pingApp[21] "Pings sent" 374
scalar MeshLAN.host[1].pingApp[21] "ping loss rate (%)" 0
scalar MeshLAN.host[1].pingApp[21] "ping out-of-order rate (%)" 0
scalar MeshLAN.host[1].pingApp[21] pingRxSeq:count 276
attr interpolationmode none
attr title "ping rx seq, count"
scalar MeshLAN.host[1].pingApp[21] pingTxSeq:count 276
attr interpolationmode none
attr title "ping tx seq, count"
scalar MeshLAN.host[1].pingApp[21] numOutOfOrderArrivals:last nan
attr interpolationmode none
attr title "ping out-of-order arrivals, last"
scalar MeshLAN.host[1].pingApp[21] numLost:last nan
attr interpolationmode none
attr title "pings lost, last"
scalar MeshLAN.host[1].pingApp[21] rtt:mean 0.00022547895357664
attr interpolationmode none
attr title "ping round-trip time, mean"
attr unit s
scalar MeshLAN.host[1].pingApp[22] "Pings sent" 394
scalar MeshLAN.host[1].pingApp[22] "ping loss rate (%)" 0
scalar MeshLAN.host[1].pingApp[22] "ping out-of-order rate (%)" 0
scalar MeshLAN.host[1].pingApp[22] pingRxSeq:count 294
attr interpolationmode none
attr title "ping rx seq, count"
scalar MeshLAN.host[1].pingApp[22] pingTxSeq:count 294
attr interpolationmode none
attr title "ping tx seq, count"
scalar MeshLAN.host[1].pingApp[22] numOutOfOrderArrivals:last nan
attr interpolationmode none
attr title "ping out-of-order arrivals, last"
scalar MeshLAN.host[1].pingApp[22] numLost:last nan
attr interpolationmode none
attr title "pings lost, last"
scalar MeshLAN.host[1].pingApp[22] rtt:mean 0.0002610608379622
attr interpolationmode none
attr title "ping round-trip time, mean"
attr unit s
scalar MeshLAN.host[1].pingApp[23] "Pings sent" 376
scalar MeshLAN.host[1].pingApp[23] "ping loss rate (%)" 0
scalar MeshLAN.host[1].pingApp[23] "ping out-of-order rate (%)" 0
scalar MeshLAN.host[1].pingApp[23] pingRxSeq:count 280
attr interpolationmode none
attr title "ping rx seq, count"
scalar MeshLAN.host[1].pingApp[23] pingTxSeq:count 280
attr interpolationmode none
attr title "ping tx seq, count"
scalar MeshLAN.host[1].pingApp[23] numOutOfOrderArrivals:last nan
attr interpolationmode none
attr title "ping out-of-order arrivals, last"
scalar MeshLAN.host[1].pingApp[23] numLost:last nan
attr interpolationmode none
attr title "pings lost, last"
scalar MeshLAN.host[1].pingApp[23] rtt:mean 0.00036582745173285
attr interpolationmode none
attr title "ping round-trip time, mean"
attr unit s
scalar MeshLAN.host[1].pingApp[24] "Pings sent" 374
scalar MeshLAN.host[1].pingApp[24] "ping loss rate (%)" 0
scalar MeshLAN.host[1].pingApp[24] "ping out-of-order rate (%)" 0
scalar MeshLAN.host[1].pingApp[24] pingRxSeq:count 280
attr interpolationmode none
attr title "ping rx seq, count"
scalar MeshLAN.host[1].pingApp[24] pingTxSeq:count 280
attr interpolationmode none
attr title "ping tx seq, count"
scalar MeshLAN.host[1].pingApp[24] numOutOfOrderArrivals:last nan
attr interpolationmode none
attr title "ping out-of-order arrivals, last"
scalar MeshLAN.host[1].pingApp[24] numLost:last nan
attr interpolationmode none
attr title "pings lost, last"
scalar MeshLAN.host[1].pingApp[24] rtt:mean 0.00033947596584364
attr interpolationmode none
attr title "ping round-trip time, mean"
attr unit s
scalar MeshLAN.host[1].pingApp[25] "Pings sent" 383
scalar MeshLAN.host[1].pingApp[25] "ping loss rate (%)" 0
scalar MeshLAN.host[1].pingApp[25] "ping out-of-order rate (%)" 0
scalar MeshLAN.host[1].pingApp[25] pingRxSeq:count 293
attr interpolationmode none
attr title "ping rx seq, count"
scalar MeshLAN.host[1].pingApp[25] pingTxSeq:count 293
attr interpolationmode none
attr title "ping tx seq, count"
scalar MeshLAN.host[1].pingApp[25] numOutOfOrderArrivals:last nan
attr interpolationmode none
attr title "ping out-of-order arrivals, last"
scalar MeshLAN.host[1].pingApp[25] numLost:last nan
attr interpolationmode none
attr title "pings lost, last"
scalar MeshLAN.host[1].pingApp[25] rtt:mean 0.00011463930115972
attr interpolationmode none
attr title "ping round-trip time, mean"
attr unit s
scalar MeshLAN.host[1].pingApp[26] "Pings sent" 393
scalar MeshLAN.host[1].pingApp[26] "ping loss rate (%)" 0
scalar MeshLAN.host[1].pingApp[26] "ping out-of-order rate (%)" 0
scalar MeshLAN.host[1].pingApp[26] pingRxSeq:count 298
attr interpolationmode none
attr title "ping rx seq, count"
scalar MeshLAN.host[1].pingApp[26] pingTxSeq:count 298
attr interpolationmode none
attr title "ping tx seq, count"
scalar MeshLAN.host[1].pingApp[26] numOutOfOrderArrivals:last nan
attr interpolationmode none
attr title "ping out-of-order arrivals, last"
scalar MeshLAN.host[1].pingApp[26] numLost:last nan
attr interpolationmode none
attr title "pings lost, last"
scalar MeshLAN.host[1].pingApp[26] rtt:mean 0.0002530004241134
attr interpolationmode none
attr title "ping round-trip time, mean"
attr unit s
scalar MeshLAN.host[1].pingApp[27] "Pings sent" 388
scalar MeshLAN.host[1].pingApp[27] "ping loss rate (%)" 0
scalar MeshLAN.host[1].pingApp[27] "ping out-of-order rate (%)" 0
scalar MeshLAN.host[1].pingApp[27] pingRxSeq:count 294
attr interpolationmode none
attr title "ping rx seq, count"
scalar MeshLAN.host[1].pingApp[27] pingTxSeq:count 294
attr interpolationmode none
attr title "ping tx seq, count"
scalar MeshLAN.host[1].pingApp[27] numOutOfOrderArrivals:last nan
attr interpolationmode none
attr title "ping out-of-order arrivals, last"
scalar MeshLAN.host[1].pingApp[27] numLost:last nan
attr interpolationmode none
attr title "pings lost, last"
scalar MeshLAN.host[1].pingApp[27] rtt:mean 0.00042632976438062
attr interpolationmode none
attr title "ping round-trip time, mean"
attr unit s
scalar MeshLAN.host[2].networkLayer.arp sentReply:count 0
attr title "ARP replies sent, count"
scalar MeshLAN.host[2].networkLayer.arp sentReq:count 0
attr title "ARP request sent, count"
scalar MeshLAN.host[2].networkLayer.arp failedARPResolution:count 0
attr title "ARP failed resolutions, count"
scalar MeshLAN.host[2].networkLayer.arp completedARPResolution:count 0
attr title "ARP completed resolutions, count"
scalar MeshLAN.host[2].networkLayer.arp initiatedARPResolution:count 0
attr title "ARP initiated resolutions, count"
scalar MeshLAN.host[2].lo0.lo droppedPkBitError:count 0
attr interpolationmode none
attr source dropPkBitError
attr title "packets dropped/bit error, count"
scalar MeshLAN.host[2].lo0.lo droppedPkBitError:sum(packetBytes) 0
attr interpolationmode none
attr source dropPkBitError
attr title "packets dropped/bit error, sum(packetBytes)"
scalar MeshLAN.host[2].lo0.lo rcvdPkFromHL:count 204
attr interpolationmode none
attr source packetReceivedFromUpper
attr title "packets received from higher layer, count"
scalar MeshLAN.host[2].lo0.lo rcvdPkFromHL:sum(packetBytes) 139782
attr interpolationmode none
attr source packetReceivedFromUpper
attr title "packets received from higher layer, sum(packetBytes)"
scalar MeshLAN.host[2].lo0.lo passedUpPk:count 204
attr interpolationmode none
attr source packetSentToUpper
attr title "packets passed to higher layer, count"
scalar MeshLAN.host[2].lo0.lo passedUpPk:sum(packetBytes) 139782
attr interpolationmode none
attr source packetSentToUpper
attr title "packets passed to higher layer, sum(packetBytes)"
scalar MeshLAN.host[2].eth[0].queue.pauseQueue queueLength:max nan
attr interpolationmode sample-hold
attr title "queue length, max"
scalar MeshLAN.host[2].eth[0].queue.pauseQueue queueLength:timeavg nan
attr interpolationmode sample-hold
attr title "queue length, timeavg"
statistic MeshLAN.host[2].eth[0].queue.pauseQueue queueingTime:histogram
field count 0
field mean nan
field stddev nan
field min nan
field max nan
field sum 0
field sqrsum 0
attr interpolationmode none
attr title "queueing time, histogram"
bin	-inf	0
bin	-0.5	0
bin	-0.46666666666667	0
bin	-0.43333333333333	0
bin	-0.4	0
bin	-0.36666666666667	0
bin	-0.33333333333333	0
bin	-0.3	0
bin	-0.26666666666667	0
bin	-0.23333333333333	0
bin	-0.2	0
bin	-0.16666666666667	0
bin	-0.13333333333333	0
bin	-0.1	0
bin	-0.066666666666667	0
bin	-0.033333333333333	0
bin	0	0
bin	0.033333333333333	0
bin	0.066666666666667	0
bin	0.1	0
bin	0.13333333333333	0
bin	0.16666666666667	0
bin	0.2	0
bin	0.23333333333333	0
bin	0.26666666666667	0
bin	0.3	0
bin	0.33333333333333	0
bin	0.36666666666667	0
bin	0.4	0
bin	0.43333333333333	0
bin	0.46666666666667	0
bin	0.5	0
scalar MeshLAN.host[2].eth[0].queue.pauseQueue dropPk:count 0
attr interpolationmode none
attr source dropPkByQueue
attr title "dropped packets, count"
scalar MeshLAN.host[2].eth[0].queue.pauseQueue dropPk:sum(packetBytes) 0
attr interpolationmode none
attr source dropPkByQueue
attr title "dropped packets, sum(packetBytes)"
scalar MeshLAN.host[2].eth[0].queue.pauseQueue rcvdPk:count 0
attr interpolationmode none
attr title "received packets, count"
scalar MeshLAN.host[2].eth[0].queue.pauseQueue rcvdPk:sum(packetBytes) 0
attr interpolationmode none
attr title "received packets, sum(packetBytes)"
scalar MeshLAN.host[2].eth[0].queue.dataQueue queueLength:max 5
attr interpolationmode sample-hold
attr title "queue length, max"
scalar MeshLAN.host[2].eth[0].queue.dataQueue queueLength:timeavg 0.027862423552444
attr interpolationmode sample-hold
attr title "queue length, timeavg"
statistic MeshLAN.host[2].eth[0].queue.dataQueue queueingTime:histogram
field count 13308
field mean 3.1404673425912e-005
field stddev 4.3109665744276e-005
field min 0
field max 0.000297939876
field sum 0.41793339395204
field sqrsum 3.7855366485568e-005
attr interpolationmode none
attr title "queueing time, histogram"
bin	-inf	0
bin	-5.4266615e-005	0
bin	-4.7031066333333e-005	0
bin	-3.9795517666667e-005	0
bin	-3.2559969e-005	0
bin	-2.5324420333333e-005	0
bin	-1.8088871666667e-005	0
bin	-1.0853323e-005	0
bin	-3.6177743333333e-006	8412
bin	3.6177743333333e-006	36
bin	1.0853323e-005	29
bin	1.8088871666667e-005	32
bin	2.5324420333333e-005	31
bin	3.2559969e-005	27
bin	3.9795517666667e-005	36
bin	4.7031066333333e-005	37
bin	5.4266615e-005	21
bin	6.1502163666667e-005	24
bin	6.8737712333333e-005	26
bin	7.5973261e-005	24
bin	8.3208809666667e-005	4263
bin	9.0444358333333e-005	30
bin	9.7679907e-005	28
bin	0.00010491545566667	29
bin	0.00011215100433333	23
bin	0.000119386553	16
bin	0.00012662210166667	26
bin	0.00013385765033333	22
bin	0.000141093199	11
bin	0.00014832874766667	18
bin	0.00015556429633333	11
bin	0.000162799845	96
scalar MeshLAN.host[2].eth[0].queue.dataQueue dropPk:count 0
attr interpolationmode none
attr source dropPkByQueue
attr title "dropped packets, count"
scalar MeshLAN.host[2].eth[0].queue.dataQueue dropPk:sum(packetBytes) 0
attr interpolationmode none
attr source dropPkByQueue
attr title "dropped packets, sum(packetBytes)"
scalar MeshLAN.host[2].eth[0].queue.dataQueue rcvdPk:count 13308
attr interpolationmode none
attr title "received packets, count"
scalar MeshLAN.host[2].eth[0].queue.dataQueue rcvdPk:sum(packetBytes) 9244084
attr interpolationmode none
attr title "received packets, sum(packetBytes)"
scalar MeshLAN.host[2].eth[0].mac "simulated time" 20
scalar MeshLAN.host[2].eth[0].mac full-duplex 1
scalar MeshLAN.host[2].eth[0].mac "frames/sec sent" 878.15
scalar MeshLAN.host[2].eth[0].mac "frames/sec rcvd" 878.15
scalar MeshLAN.host[2].eth[0].mac "bits/sec sent" 4872891.6
scalar MeshLAN.host[2].eth[0].mac "bits/sec rcvd" 4872891.6
scalar MeshLAN.host[2].eth[0].mac "rx channel idle (%)" 95.0709068
scalar MeshLAN.host[2].eth[0].mac "rx channel utilization (%)" 4.9290932
scalar MeshLAN.host[2].eth[0].mac rxPkFromHL:count 13308
attr interpolationmode none
attr source rxPkFromHL
attr title "packet bytes from higher layer, count"
scalar MeshLAN.host[2].eth[0].mac rxPkFromHL:sum(packetBytes) 9244084
attr interpolationmode none
attr source rxPkFromHL
attr title "packet bytes from higher layer, sum(packetBytes)"
scalar MeshLAN.host[2].eth[0].mac rxPausePkUnits:count 0
attr interpolationmode none
attr title "pause units received, count"
scalar MeshLAN.host[2].eth[0].mac rxPausePkUnits:sum 0
attr interpolationmode none
attr title "pause units received, sum"
scalar MeshLAN.host[2].eth[0].mac txPausePkUnits:count 0
attr interpolationmode none
attr title "pause units sent, count"
scalar MeshLAN.host[2].eth[0].mac txPausePkUnits:sum 0
attr interpolationmode none
attr title "pause units sent, sum"
scalar MeshLAN.host[2].eth[0].mac txPk:count 13308
attr interpolationmode none
attr source txPk
attr title "packets transmitted, count"
scalar MeshLAN.host[2].eth[0].mac txPk:sum(packetBytes) 9244084
attr interpolationmode none
attr source txPk
attr title "packets transmitted, sum(packetBytes)"
scalar MeshLAN.host[2].eth[0].mac droppedPkNotForUs:count 0
attr interpolationmode none
attr source dropPkNotForUs
attr title "packets dropped/not for us, count"
scalar MeshLAN.host[2].eth[0].mac droppedPkNotForUs:sum(packetBytes) 0
attr interpolationmode none
attr source dropPkNotForUs
attr title "packets dropped/not for us, sum(packetBytes)"
scalar MeshLAN.host[2].eth[0].mac droppedPkBitError:count 0
attr interpolationmode none
attr source dropPkBitError
attr title "packets dropped/bit error, count"
scalar MeshLAN.host[2].eth[0].mac droppedPkBitError:sum(packetBytes) 0
attr interpolationmode none
attr source dropPkBitError
attr title "packets dropped/bit error, sum(packetBytes)"
scalar MeshLAN.host[2].eth[0].mac droppedPkIfaceDown:count 0
attr interpolationmode none
attr source dropPkIfaceDown
attr title "packets dropped/interface down, count"
scalar MeshLAN.host[2].eth[0].mac droppedPkIfaceDown:sum(packetBytes) 0
attr interpolationmode none
attr source dropPkIfaceDown
attr title "packets dropped/interface down, sum(packetBytes)"
scalar MeshLAN.host[2].eth[0].mac rxPkOk:count 13308
attr interpolationmode none
attr source rxPkOk
attr title "packets received OK, count"
scalar MeshLAN.host[2].eth[0].mac rxPkOk:sum(packetBytes) 9244084
attr interpolationmode none
attr source rxPkOk
attr title "packets received OK, sum(packetBytes)"
scalar MeshLAN.host[2].eth[0].mac passedUpPk:count 13308
attr interpolationmode none
attr source packetSentToUpper
attr title "packets passed to higher layer, count"
scalar MeshLAN.host[2].eth[0].mac passedUpPk:sum(packetBytes) 9244084
attr interpolationmode none
attr source packetSentToUpper
attr title "packets passed to higher layer, sum(packetBytes)"
scalar MeshLAN.host[2].eth[0].encap pauseSent:count 0
attr title "pause sent, count"
scalar MeshLAN.host[2].eth[0].encap pauseSent:sum 0
attr title "pause sent, sum"
scalar MeshLAN.host[2].eth[0].encap decapPk:count 13308
attr interpolationmode none
attr source decapPk
attr title "packets decapsulated, count"
scalar MeshLAN.host[2].eth[0].encap decapPk:sum(packetBytes) 9004343
attr interpolationmode none
attr source decapPk
attr title "packets decapsulated, sum(packetBytes)"
scalar MeshLAN.host[2].eth[0].encap encapPk:count 13308
attr interpolationmode none
attr source encapPk
attr title "packets encapsulated, count"
scalar MeshLAN.host[2].eth[0].encap encapPk:sum(packetBytes) 9004343
attr interpolationmode none
attr source encapPk
attr title "packets encapsulated, sum(packetBytes)"
scalar MeshLAN.host[2].pingApp[0] "Pings sent" 386
scalar MeshLAN.host[2].pingApp[0] "ping loss rate (%)" 0
scalar MeshLAN.host[2].pingApp[0] "ping out-of-order rate (%)" 0
scalar MeshLAN.host[2].pingApp[0] pingRxSeq:count 288
attr interpolationmode none
attr title "ping rx seq, count"
scalar MeshLAN.host[2].pingApp[0] pingTxSeq:count 288
attr interpolationmode none
attr title "ping tx seq, count"
scalar MeshLAN.host[2].pingApp[0] numOutOfOrderArrivals:last nan
attr interpolationmode none
attr title "ping out-of-order arrivals, last"
scalar MeshLAN.host[2].pingApp[0] numLost:last nan
attr interpolationmode none
attr title "pings lost, last"
scalar MeshLAN.host[2].pingApp[0] rtt:mean 0.00036545778956643
attr interpolationmode none
attr title "ping round-trip time, mean"
attr unit s
scalar MeshLAN.host[2].pingApp[1] "Pings sent" 374
scalar MeshLAN.host[2].pingApp[1] "ping loss rate (%)" 0
scalar MeshLAN.host[2].pingApp[1] "ping out-of-order rate (%)" 0
scalar MeshLAN.host[2].pingApp[1] pingRxSeq:count 289
attr interpolationmode none
attr title "ping rx seq, count"
scalar MeshLAN.host[2].pingApp[1] pingTxSeq:count 289
attr interpolationmode none
attr title "ping tx seq, count"
scalar MeshLAN.host[2].pingApp[1] numOutOfOrderArrivals:last nan
attr interpolationmode none
attr title "ping out-of-order arrivals, last"
scalar MeshLAN.host[2].pingApp[1] numLost:last nan
attr interpolationmode none
attr title "pings lost, last"
scalar MeshLAN.host[2].pingApp[1] rtt:mean 0.00038468838595471
attr interpolationmode none
attr title "ping round-trip time, mean"
attr unit s
scalar MeshLAN.host[2].pingApp[2] "Pings sent" 399
scalar MeshLAN.host[2].pingApp[2] "ping loss rate (%)" 0
scalar MeshLAN.host[2].pingApp[2] "ping out-of-order rate (%)" 0
scalar MeshLAN.host[2].pingApp[2] pingRxSeq:count 295
attr interpolationmode none
attr title "ping rx seq, count"
scalar MeshLAN.host[2].pingApp[2] pingTxSeq:count 295
attr interpolationmode none
attr title "ping tx seq, count"
scalar MeshLAN.host[2].pingApp[2] numOutOfOrderArrivals:last nan
attr interpolationmode none
attr title "ping out-of-order arrivals, last"
scalar MeshLAN.host[2].pingApp[2] numLost:last nan
attr interpolationmode none
attr title "pings lost, last"
scalar MeshLAN.host[2].pingApp[2] rtt:mean 9.3689690539249e-005
attr interpolationmode none
attr title "ping round-trip time, mean"
attr unit s
scalar MeshLAN.host[2].pingApp[3] "Pings sent" 382
scalar MeshLAN.host[2].pingApp[3] "ping loss rate (%)" 0
scalar MeshLAN.host[2].pingApp[3] "ping out-of-order rate (%)" 0
scalar MeshLAN.host[2].pingApp[3] pingRxSeq:count 293
attr interpolationmode none
attr title "ping rx seq, count"
scalar MeshLAN.host[2].pingApp[3] pingTxSeq:count 293
attr interpolationmode none
attr title "ping tx seq, count"
scalar MeshLAN.host[2].pingApp[3] numOutOfOrderArrivals:last nan
attr interpolationmode none
attr title "ping out-of-order arrivals, last"
scalar MeshLAN.host[2].pingApp[3] numLost:last nan
attr interpolationmode none
attr title "pings lost, last"
scalar MeshLAN.host[2].pingApp[3] rtt:mean 0.00032323212229758
attr interpolationmode none
attr title "ping round-trip time, mean"
attr unit s
scalar MeshLAN.host[2].pingApp[4] "Pings sent" 395
scalar MeshLAN.host[2].pingApp[4] "ping loss rate (%)" 0
scalar MeshLAN.host[2].pingApp[4] "ping out-of-order rate (%)" 0
scalar MeshLAN.host[2].pingApp[4] pingRxSeq:count 294
attr interpolationmode none
attr title "ping rx seq, count"
scalar MeshLAN.host[2].pingApp[4] pingTxSeq:count 294
attr interpolationmode none
attr title "ping tx seq, count"
scalar MeshLAN.host[2].pingApp[4] numOutOfOrderArrivals:last nan
attr interpolationmode none
attr title "ping out-of-order arrivals, last"
scalar MeshLAN.host[2].pingApp[4] numLost:last nan
attr interpolationmode none
attr title "pings lost, last"
scalar MeshLAN.host[2].pingApp[4] rtt:mean 0.00030747541211225
attr interpolationmode none
attr title "ping round-trip time, mean"
attr unit s
scalar MeshLAN.host[2].pingApp[5] "Pings sent" 379
scalar MeshLAN.host[2].pingApp[5] "ping loss rate (%)" 0
scalar MeshLAN.host[2].pingApp[5] "ping out-of-order rate (%)" 0
scalar MeshLAN.host[2].pingApp[5] pingRxSeq:count 290
attr interpolationmode none
attr title "ping rx seq, count"
scalar MeshLAN.host[2].pingApp[5] pingTxSeq:count 290
attr interpolationmode none
attr title "ping tx seq, count"
scalar MeshLAN.host[2].pingApp[5] numOutOfOrderArrivals:last nan
attr interpolationmode none
attr title "ping out-of-order arrivals, last"
scalar MeshLAN.host[2].pingApp[5] numLost:last nan
attr interpolationmode none
attr title "pings lost, last"
scalar MeshLAN.host[2].pingApp[5] rtt:mean 0.00027116293686458
attr interpolationmode none
attr title "ping round-trip time, mean"
attr unit s
scalar MeshLAN.host[2].pingApp[6] "Pings sent" 382
scalar MeshLAN.host[2].pingApp[6] "ping loss rate (%)" 0
scalar MeshLAN.host[2].pingApp[6] "ping out-of-order rate (%)" 0.26178010471204
scalar MeshLAN.host[2].pingApp[6] pingRxSeq:count 289
attr interpolationmode none
attr title "ping rx seq, count"
scalar MeshLAN.host[2].pingApp[6] pingTxSeq:count 289
attr interpolationmode none
attr title "ping tx seq, count"
scalar MeshLAN.host[2].pingApp[6] numOutOfOrderArrivals:last 1
attr interpolationmode none
attr title "ping out-of-order arrivals, last"
scalar MeshLAN.host[2].pingApp[6] numLost:last 0
attr interpolationmode none
attr title "pings lost, last"
scalar MeshLAN.host[2].pingApp[6] rtt:mean 0.00044941339061805
attr interpolationmode none
attr title "ping round-trip time, mean"
attr unit s
scalar MeshLAN.host[2].pingApp[7] "Pings sent" 391
scalar MeshLAN.host[2].pingApp[7] "ping loss rate (%)" 0
scalar MeshLAN.host[2].pingApp[7] "ping out-of-order rate (%)" 0
scalar MeshLAN.host[2].pingApp[7] pingRxSeq:count 292
attr interpolationmode none
attr title "ping rx seq, count"
scalar MeshLAN.host[2].pingApp[7] pingTxSeq:count 292
attr interpolationmode none
attr title "ping tx seq, count"
scalar MeshLAN.host[2].pingApp[7] numOutOfOrderArrivals:last nan
attr interpolationmode none
attr title "ping out-of-order arrivals, last"
scalar MeshLAN.host[2].pingApp[7] numLost:last nan
attr interpolationmode none
attr title "pings lost, last"
[...]
attr interpolationmode none
attr title "received packets, sum(packetBytes)"
scalar MeshLAN.router[9].eth[7].mac "simulated time" 20
scalar MeshLAN.router[9].eth[7].mac full-duplex 1
scalar MeshLAN.router[9].eth[7].mac "frames/sec sent" 159.1
scalar MeshLAN.router[9].eth[7].mac "frames/sec rcvd" 159.15
scalar MeshLAN.router[9].eth[7].mac "bits/sec sent" 898280.8
scalar MeshLAN.router[9].eth[7].mac "bits/sec rcvd" 898686.4
scalar MeshLAN.router[9].eth[7].mac "rx channel idle (%)" 99.091128
scalar MeshLAN.router[9].eth[7].mac "rx channel utilization (%)" 0.908872
scalar MeshLAN.router[9].eth[7].mac rxPkFromHL:count 2395
attr interpolationmode none
attr source rxPkFromHL
attr title "packet bytes from higher layer, count"
scalar MeshLAN.router[9].eth[7].mac rxPkFromHL:sum(packetBytes) 1698162
attr interpolationmode none
attr source rxPkFromHL
attr title "packet bytes from higher layer, sum(packetBytes)"
scalar MeshLAN.router[9].eth[7].mac rxPausePkUnits:count 0
attr interpolationmode none
attr title "pause units received, count"
scalar MeshLAN.router[9].eth[7].mac rxPausePkUnits:sum 0
attr interpolationmode none
attr title "pause units received, sum"
scalar MeshLAN.router[9].eth[7].mac txPausePkUnits:count 0
attr interpolationmode none
attr title "pause units sent, count"
scalar MeshLAN.router[9].eth[7].mac txPausePkUnits:sum 0
attr interpolationmode none
attr title "pause units sent, sum"
scalar MeshLAN.router[9].eth[7].mac txPk:count 2394
attr interpolationmode none
attr source txPk
attr title "packets transmitted, count"
scalar MeshLAN.router[9].eth[7].mac txPk:sum(packetBytes) 1697148
attr interpolationmode none
attr source txPk
attr title "packets transmitted, sum(packetBytes)"
scalar MeshLAN.router[9].eth[7].mac droppedPkNotForUs:count 0
attr interpolationmode none
attr source dropPkNotForUs
attr title "packets dropped/not for us, count"
scalar MeshLAN.router[9].eth[7].mac droppedPkNotForUs:sum(packetBytes) 0
attr interpolationmode none
attr source dropPkNotForUs
attr title "packets dropped/not for us, sum(packetBytes)"
scalar MeshLAN.router[9].eth[7].mac droppedPkBitError:count 0
attr interpolationmode none
attr source dropPkBitError
attr title "packets dropped/bit error, count"
scalar MeshLAN.router[9].eth[7].mac droppedPkBitError:sum(packetBytes) 0
attr interpolationmode none
attr source dropPkBitError
attr title "packets dropped/bit error, sum(packetBytes)"
scalar MeshLAN.router[9].eth[7].mac droppedPkIfaceDown:count 0
attr interpolationmode none
attr source dropPkIfaceDown
attr title "packets dropped/interface down, count"
scalar MeshLAN.router[9].eth[7].mac droppedPkIfaceDown:sum(packetBytes) 0
attr interpolationmode none
attr source dropPkIfaceDown
attr title "packets dropped/interface down, sum(packetBytes)"
scalar MeshLAN.router[9].eth[7].mac rxPkOk:count 2395
attr interpolationmode none
attr source rxPkOk
attr title "packets received OK, count"
scalar MeshLAN.router[9].eth[7].mac rxPkOk:sum(packetBytes) 1698162
attr interpolationmode none
attr source rxPkOk
attr title "packets received OK, sum(packetBytes)"
scalar MeshLAN.router[9].eth[7].mac passedUpPk:count 2395
attr interpolationmode none
attr source packetSentToUpper
attr title "packets passed to higher layer, count"
scalar MeshLAN.router[9].eth[7].mac passedUpPk:sum(packetBytes) 1698162
attr interpolationmode none
attr source packetSentToUpper
attr title "packets passed to higher layer, sum(packetBytes)"
scalar MeshLAN.router[9].eth[7].encap pauseSent:count 0
attr title "pause sent, count"
scalar MeshLAN.router[9].eth[7].encap pauseSent:sum 0
attr title "pause sent, sum"
scalar MeshLAN.router[9].eth[7].encap decapPk:count 2395
attr interpolationmode none
attr source decapPk
attr title "packets decapsulated, count"
scalar MeshLAN.router[9].eth[7].encap decapPk:sum(packetBytes) 1654812
attr interpolationmode none
attr source decapPk
attr title "packets decapsulated, sum(packetBytes)"
scalar MeshLAN.router[9].eth[7].encap encapPk:count 2395
attr interpolationmode none
attr source encapPk
attr title "packets encapsulated, count"
scalar MeshLAN.router[9].eth[7].encap encapPk:sum(packetBytes) 1654812
attr interpolationmode none
attr source encapPk
attr title "packets encapsulated, sum(packetBytes)"
scalar MeshLAN.router[9].eth[8].queue.pauseQueue queueLength:max nan
attr interpolationmode sample-hold
attr title "queue length, max"
scalar MeshLAN.router[9].eth[8].queue.pauseQueue queueLength:timeavg nan
attr interpolationmode sample-hold
attr title "queue length, timeavg"
statistic MeshLAN.router[9].eth[8].queue.pauseQueue queueingTime:histogram
field count 0
field mean nan
field stddev nan
field min nan
field max nan
field sum 0
field sqrsum 0
attr interpolationmode none
attr title "queueing time, histogram"
bin	-inf	0
bin	-0.5	0
bin	-0.46666666666667	0
bin	-0.43333333333333	0
bin	-0.4	0
bin	-0.36666666666667	0
bin	-0.33333333333333	0
bin	-0.3	0
bin	-0.26666666666667	0
bin	-0.23333333333333	0
bin	-0.2	0
bin	-0.16666666666667	0
bin	-0.13333333333333	0
bin	-0.1	0
bin	-0.066666666666667	0
bin	-0.033333333333333	0
bin	0	0
bin	0.033333333333333	0
bin	0.066666666666667	0
bin	0.1	0
bin	0.13333333333333	0
bin	0.16666666666667	0
bin	0.2	0
bin	0.23333333333333	0
bin	0.26666666666667	0
bin	0.3	0
bin	0.33333333333333	0
bin	0.36666666666667	0
bin	0.4	0
bin	0.43333333333333	0
bin	0.46666666666667	0
bin	0.5	0
scalar MeshLAN.router[9].eth[8].queue.pauseQueue dropPk:count 0
attr interpolationmode none
attr source dropPkByQueue
attr title "dropped packets, count"
scalar MeshLAN.router[9].eth[8].queue.pauseQueue dropPk:sum(packetBytes) 0
attr interpolationmode none
attr source dropPkByQueue
attr title "dropped packets, sum(packetBytes)"
scalar MeshLAN.router[9].eth[8].queue.pauseQueue rcvdPk:count 0
attr interpolationmode none
attr title "received packets, count"
scalar MeshLAN.router[9].eth[8].queue.pauseQueue rcvdPk:sum(packetBytes) 0
attr interpolationmode none
attr title "received packets, sum(packetBytes)"
scalar MeshLAN.router[9].eth[8].queue.dataQueue queueLength:max 3
attr interpolationmode sample-hold
attr title "queue length, max"
scalar MeshLAN.router[9].eth[8].queue.dataQueue queueLength:timeavg 0.0042720296771311
attr interpolationmode sample-hold
attr title "queue length, timeavg"
statistic MeshLAN.router[9].eth[8].queue.dataQueue queueingTime:histogram
field count 2438
field mean 2.6282213480312e-005
field stddev 4.0727178764859e-005
field min 0
field max 0.00016928
field sum 0.064076036464999
field sqrsum 5.7263195000282e-006
attr interpolationmode none
attr title "queueing time, histogram"
bin	-inf	0
bin	-8.464e-005	0
bin	-7.3354666666667e-005	0
bin	-6.2069333333333e-005	0
bin	-5.0784e-005	0
bin	-3.9498666666667e-005	0
bin	-2.8213333333333e-005	0
bin	-1.6928e-005	0
bin	-5.6426666666667e-006	1578
bin	5.6426666666667e-006	4
bin	1.6928e-005	59
bin	2.8213333333333e-005	64
bin	3.9498666666667e-005	39
bin	5.0784e-005	89
bin	6.2069333333333e-005	139
bin	7.3354666666667e-005	31
bin	8.464e-005	369
bin	9.5925333333333e-005	1
bin	0.00010721066666667	3
bin	0.000118496	1
bin	0.00012978133333333	0
bin	0.00014106666666667	2
bin	0.000152352	1
bin	0.00016363733333333	58
bin	0.00017492266666667	0
bin	0.000186208	0
bin	0.00019749333333333	0
bin	0.00020877866666667	0
bin	0.000220064	0
bin	0.00023134933333333	0
bin	0.00024263466666667	0
bin	0.00025392	0
scalar MeshLAN.router[9].eth[8].queue.dataQueue dropPk:count 0
attr interpolationmode none
attr source dropPkByQueue
attr title "dropped packets, count"
scalar MeshLAN.router[9].eth[8].queue.dataQueue dropPk:sum(packetBytes) 0
attr interpolationmode none
attr source dropPkByQueue
attr title "dropped packets, sum(packetBytes)"
scalar MeshLAN.router[9].eth[8].queue.dataQueue rcvdPk:count 2438
attr interpolationmode none
attr title "received packets, count"
scalar MeshLAN.router[9].eth[8].queue.dataQueue rcvdPk:sum(packetBytes) 1804772
attr interpolationmode none
attr title "received packets, sum(packetBytes)"
scalar MeshLAN.router[9].eth[8].mac "simulated time" 20
scalar MeshLAN.router[9].eth[8].mac full-duplex 1
scalar MeshLAN.router[9].eth[8].mac "frames/sec sent" 164.05
scalar MeshLAN.router[9].eth[8].mac "frames/sec rcvd" 164.05
scalar MeshLAN.router[9].eth[8].mac "bits/sec sent" 968587.6
scalar MeshLAN.router[9].eth[8].mac "bits/sec rcvd" 968587.6
scalar MeshLAN.router[9].eth[8].mac "rx channel idle (%)" 99.0209132
scalar MeshLAN.router[9].eth[8].mac "rx channel utilization (%)" 0.9790868
scalar MeshLAN.router[9].eth[8].mac rxPkFromHL:count 2438
attr interpolationmode none
attr source rxPkFromHL
attr title "packet bytes from higher layer, count"
scalar MeshLAN.router[9].eth[8].mac rxPkFromHL:sum(packetBytes) 1804772
attr interpolationmode none
attr source rxPkFromHL
attr title "packet bytes from higher layer, sum(packetBytes)"
scalar MeshLAN.router[9].eth[8].mac rxPausePkUnits:count 0
attr interpolationmode none
attr title "pause units received, count"
scalar MeshLAN.router[9].eth[8].mac rxPausePkUnits:sum 0
attr interpolationmode none
attr title "pause units received, sum"
scalar MeshLAN.router[9].eth[8].mac txPausePkUnits:count 0
attr interpolationmode none
attr title "pause units sent, count"
scalar MeshLAN.router[9].eth[8].mac txPausePkUnits:sum 0
attr interpolationmode none
attr title "pause units sent, sum"
scalar MeshLAN.router[9].eth[8].mac txPk:count 2438
attr interpolationmode none
attr source txPk
attr title "packets transmitted, count"
scalar MeshLAN.router[9].eth[8].mac txPk:sum(packetBytes) 1804772
attr interpolationmode none
attr source txPk
attr title "packets transmitted, sum(packetBytes)"
scalar MeshLAN.router[9].eth[8].mac droppedPkNotForUs:count 0
attr interpolationmode none
attr source dropPkNotForUs
attr title "packets dropped/not for us, count"
scalar MeshLAN.router[9].eth[8].mac droppedPkNotForUs:sum(packetBytes) 0
attr interpolationmode none
attr source dropPkNotForUs
attr title "packets dropped/not for us, sum(packetBytes)"
scalar MeshLAN.router[9].eth[8].mac droppedPkBitError:count 0
attr interpolationmode none
attr source dropPkBitError
attr title "packets dropped/bit error, count"
scalar MeshLAN.router[9].eth[8].mac droppedPkBitError:sum(packetBytes) 0
attr interpolationmode none
attr source dropPkBitError
attr title "packets dropped/bit error, sum(packetBytes)"
scalar MeshLAN.router[9].eth[8].mac droppedPkIfaceDown:count 0
attr interpolationmode none
attr source dropPkIfaceDown
attr title "packets dropped/interface down, count"
scalar MeshLAN.router[9].eth[8].mac droppedPkIfaceDown:sum(packetBytes) 0
attr interpolationmode none
attr source dropPkIfaceDown
attr title "packets dropped/interface down, sum(packetBytes)"
scalar MeshLAN.router[9].eth[8].mac rxPkOk:count 2438
attr interpolationmode none
attr source rxPkOk
attr title "packets received OK, count"
scalar MeshLAN.router[9].eth[8].mac rxPkOk:sum(packetBytes) 1804772
attr interpolationmode none
attr source rxPkOk
attr title "packets received OK, sum(packetBytes)"
scalar MeshLAN.router[9].eth[8].mac passedUpPk:count 2438
attr interpolationmode none
attr source packetSentToUpper
attr title "packets passed to higher layer, count"
scalar MeshLAN.router[9].eth[8].mac passedUpPk:sum(packetBytes) 1804772
attr interpolationmode none
attr source packetSentToUpper
attr title "packets passed to higher layer, sum(packetBytes)"
scalar MeshLAN.router[9].eth[8].encap pauseSent:count 0
attr title "pause sent, count"
scalar MeshLAN.router[9].eth[8].encap pauseSent:sum 0
attr title "pause sent, sum"
scalar MeshLAN.router[9].eth[8].encap decapPk:count 2438
attr interpolationmode none
attr source decapPk
attr title "packets decapsulated, count"
scalar MeshLAN.router[9].eth[8].encap decapPk:sum(packetBytes) 1760074
attr interpolationmode none
attr source decapPk
attr title "packets decapsulated, sum(packetBytes)"
scalar MeshLAN.router[9].eth[8].encap encapPk:count 2438
attr interpolationmode none
attr source encapPk
attr title "packets encapsulated, count"
scalar MeshLAN.router[9].eth[8].encap encapPk:sum(packetBytes) 1760074
attr interpolationmode none
attr source encapPk
attr title "packets encapsulated, sum(packetBytes)"
scalar MeshLAN.router[9].eth[9].queue.pauseQueue queueLength:max nan
attr interpolationmode sample-hold
attr title "queue length, max"
scalar MeshLAN.router[9].eth[9].queue.pauseQueue queueLength:timeavg nan
attr interpolationmode sample-hold
attr title "queue length, timeavg"
statistic MeshLAN.router[9].eth[9].queue.pauseQueue queueingTime:histogram
field count 0
field mean nan
field stddev nan
field min nan
field max nan
field sum 0
field sqrsum 0
attr interpolationmode none
attr title "queueing time, histogram"
bin	-inf	0
bin	-0.5	0
bin	-0.46666666666667	0
bin	-0.43333333333333	0
bin	-0.4	0
bin	-0.36666666666667	0
bin	-0.33333333333333	0
bin	-0.3	0
bin	-0.26666666666667	0
bin	-0.23333333333333	0
bin	-0.2	0
bin	-0.16666666666667	0
bin	-0.13333333333333	0
bin	-0.1	0
bin	-0.066666666666667	0
bin	-0.033333333333333	0
bin	0	0
bin	0.033333333333333	0
bin	0.066666666666667	0
bin	0.1	0
bin	0.13333333333333	0
bin	0.16666666666667	0
bin	0.2	0
bin	0.23333333333333	0
bin	0.26666666666667	0
bin	0.3	0
bin	0.33333333333333	0
bin	0.36666666666667	0
bin	0.4	0
bin	0.43333333333333	0
bin	0.46666666666667	0
bin	0.5	0
scalar MeshLAN.router[9].eth[9].queue.pauseQueue dropPk:count 0
attr interpolationmode none
attr source dropPkByQueue
attr title "dropped packets, count"
scalar MeshLAN.router[9].eth[9].queue.pauseQueue dropPk:sum(packetBytes) 0
attr interpolationmode none
attr source dropPkByQueue
attr title "dropped packets, sum(packetBytes)"
scalar MeshLAN.router[9].eth[9].queue.pauseQueue rcvdPk:count 0
attr interpolationmode none
attr title "received packets, count"
scalar MeshLAN.router[9].eth[9].queue.pauseQueue rcvdPk:sum(packetBytes) 0
attr interpolationmode none
attr title "received packets, sum(packetBytes)"
scalar MeshLAN.router[9].eth[9].queue.dataQueue queueLength:max 3
attr interpolationmode sample-hold
attr title "queue length, max"
scalar MeshLAN.router[9].eth[9].queue.dataQueue queueLength:timeavg 0.0045300987310236
attr interpolationmode sample-hold
attr title "queue length, timeavg"
statistic MeshLAN.router[9].eth[9].queue.dataQueue queueingTime:histogram
field count 2484
field mean 2.7319420742753e-005
field stddev 3.8825219973087e-005
field min 0
field max 0.00016928
field sum 0.067861441124999
field sqrsum 5.5968037661986e-006
attr interpolationmode none
attr title "queueing time, histogram"
bin	-inf	0
bin	-8.464e-005	0
bin	-7.3354666666667e-005	0
bin	-6.2069333333333e-005	0
bin	-5.0784e-005	0
bin	-3.9498666666667e-005	0
bin	-2.8213333333333e-005	0
bin	-1.6928e-005	0
bin	-5.6426666666667e-006	1539
bin	5.6426666666667e-006	6
bin	1.6928e-005	59
bin	2.8213333333333e-005	72
bin	3.9498666666667e-005	48
bin	5.0784e-005	85
bin	6.2069333333333e-005	141
bin	7.3354666666667e-005	28
bin	8.464e-005	472
bin	9.5925333333333e-005	1
bin	0.00010721066666667	1
bin	0.000118496	1
bin	0.00012978133333333	0
bin	0.00014106666666667	0
bin	0.000152352	2
bin	0.00016363733333333	29
bin	0.00017492266666667	0
bin	0.000186208	0
bin	0.00019749333333333	0
bin	0.00020877866666667	0
bin	0.000220064	0
bin	0.00023134933333333	0
bin	0.00024263466666667	0
bin	0.00025392	0
scalar MeshLAN.router[9].eth[9].queue.dataQueue dropPk:count 0
attr interpolationmode none
attr source dropPkByQueue
attr title "dropped packets, count"
scalar MeshLAN.router[9].eth[9].queue.dataQueue dropPk:sum(packetBytes) 0
attr interpolationmode none
attr source dropPkByQueue
attr title "dropped packets, sum(packetBytes)"
scalar MeshLAN.router[9].eth[9].queue.dataQueue rcvdPk:count 2484
attr interpolationmode none
attr title "received packets, count"
scalar MeshLAN.router[9].eth[9].queue.dataQueue rcvdPk:sum(packetBytes) 1764597
attr interpolationmode none
attr title "received packets, sum(packetBytes)"
scalar MeshLAN.router[9].eth[9].mac "simulated time" 20
scalar MeshLAN.router[9].eth[9].mac full-duplex 1
scalar MeshLAN.router[9].eth[9].mac "frames/sec sent" 165.25
scalar MeshLAN.router[9].eth[9].mac "frames/sec rcvd" 165.25
scalar MeshLAN.router[9].eth[9].mac "bits/sec sent" 935098.8
scalar MeshLAN.router[9].eth[9].mac "bits/sec rcvd" 935098.8
scalar MeshLAN.router[9].eth[9].mac "rx channel idle (%)" 99.0543252
scalar MeshLAN.router[9].eth[9].mac "rx channel utilization (%)" 0.9456748
scalar MeshLAN.router[9].eth[9].mac rxPkFromHL:count 2484
attr interpolationmode none
attr source rxPkFromHL
attr title "packet bytes from higher layer, count"
scalar MeshLAN.router[9].eth[9].mac rxPkFromHL:sum(packetBytes) 1764597
attr interpolationmode none
attr source rxPkFromHL
attr title "packet bytes from higher layer, sum(packetBytes)"
scalar MeshLAN.router[9].eth[9].mac rxPausePkUnits:count 0
attr interpolationmode none
attr title "pause units received, count"
scalar MeshLAN.router[9].eth[9].mac rxPausePkUnits:sum 0
attr interpolationmode none
attr title "pause units received, sum"
scalar MeshLAN.router[9].eth[9].mac txPausePkUnits:count 0
attr interpolationmode none
attr title "pause units sent, count"
scalar MeshLAN.router[9].eth[9].mac txPausePkUnits:sum 0
attr interpolationmode none
attr title "pause units sent, sum"
scalar MeshLAN.router[9].eth[9].mac txPk:count 2484
attr interpolationmode none
attr source txPk
attr title "packets transmitted, count"
scalar MeshLAN.router[9].eth[9].mac txPk:sum(packetBytes) 1764597
attr interpolationmode none
attr source txPk
attr title "packets transmitted, sum(packetBytes)"
scalar MeshLAN.router[9].eth[9].mac droppedPkNotForUs:count 0
attr interpolationmode none
attr source dropPkNotForUs
attr title "packets dropped/not for us, count"
scalar MeshLAN.router[9].eth[9].mac droppedPkNotForUs:sum(packetBytes) 0
attr interpolationmode none
attr source dropPkNotForUs
attr title "packets dropped/not for us, sum(packetBytes)"
scalar MeshLAN.router[9].eth[9].mac droppedPkBitError:count 0
attr interpolationmode none
attr source dropPkBitError
attr title "packets dropped/bit error, count"
scalar MeshLAN.router[9].eth[9].mac droppedPkBitError:sum(packetBytes) 0
attr interpolationmode none
attr source dropPkBitError
attr title "packets dropped/bit error, sum(packetBytes)"
scalar MeshLAN.router[9].eth[9].mac droppedPkIfaceDown:count 0
attr interpolationmode none
attr source dropPkIfaceDown
attr title "packets dropped/interface down, count"
scalar MeshLAN.router[9].eth[9].mac droppedPkIfaceDown:sum(packetBytes) 0
attr interpolationmode none
attr source dropPkIfaceDown
attr title "packets dropped/interface down, sum(packetBytes)"
scalar MeshLAN.router[9].eth[9].mac rxPkOk:count 2484
attr interpolationmode none
attr source rxPkOk
attr title "packets received OK, count"
scalar MeshLAN.router[9].eth[9].mac rxPkOk:sum(packetBytes) 1764597
attr interpolationmode none
attr source rxPkOk
attr title "packets received OK, sum(packetBytes)"
scalar MeshLAN.router[9].eth[9].mac passedUpPk:count 2484
attr interpolationmode none
attr source packetSentToUpper
attr title "packets passed to higher layer, count"
scalar MeshLAN.router[9].eth[9].mac passedUpPk:sum(packetBytes) 1764597
attr interpolationmode none
attr source packetSentToUpper
attr title "packets passed to higher layer, sum(packetBytes)"
scalar MeshLAN.router[9].eth[9].encap pauseSent:count 0
attr title "pause sent, count"
scalar MeshLAN.router[9].eth[9].encap pauseSent:sum 0
attr title "pause sent, sum"
scalar MeshLAN.router[9].eth[9].encap decapPk:count 2484
attr interpolationmode none
attr source decapPk
attr title "packets decapsulated, count"
scalar MeshLAN.router[9].eth[9].encap decapPk:sum(packetBytes) 1719561
attr interpolationmode none
attr source decapPk
attr title "packets decapsulated, sum(packetBytes)"
scalar MeshLAN.router[9].eth[9].encap encapPk:count 2484
attr interpolationmode none
attr source encapPk
attr title "packets encapsulated, count"
scalar MeshLAN.router[9].eth[9].encap encapPk:sum(packetBytes) 1719561
attr interpolationmode none
attr source encapPk
attr title "packets encapsulated, sum(packetBytes)"

