version 2
run MeshLAN10-base-2-20180110-22:22:19-4376
attr configname MeshLAN10-base
attr datetime 20180110-22:22:19
attr experiment MeshLAN10-base
attr inifile MeshLAN.ini
attr iterationvars $pa=180
attr iterationvarsf pa=180-
attr measurement $pa=180
attr network MeshLAN
attr processid 4376
attr repetition 0
attr replication #0
attr resultdir results
attr runnumber 2
attr seedset 2
itervar pa 180
param *.numHosts 10
param **.datarate 10Mbps
param **.host[*].pingApp[*].sendInterval "truncnormal(50ms, 25ms)"
param **.host[*].pingApp[*].packetSize "truncnormal(1024B, 512B)"
param **.queueType "\"DropTailQueue\""
param **.frameCapacity 10
param **.mtu 1024B
param **.host[*].numPingApps 180
param **.host[*].pingApp[*].typename "\"PingApp\""
param **.host[*].pingApp[*].count 1
param **.host[*].pingApp[*].startTime "truncnormal(200ms, 100ms)"
param **.host[*].pingApp[*].destAddr "\"*\""

scalar MeshLAN.host[0].networkLayer.arp sentReply:count 0
attr title "ARP replies sent, count"
scalar MeshLAN.host[0].networkLayer.arp sentReq:count 0
attr title "ARP request sent, count"
scalar MeshLAN.host[0].networkLayer.arp failedARPResolution:count 0
attr title "ARP failed resolutions, count"
scalar MeshLAN.host[0].networkLayer.arp completedARPResolution:count 0
attr title "ARP completed resolutions, count"
scalar MeshLAN.host[0].networkLayer.arp initiatedARPResolution:count 0
attr title "ARP initiated resolutions, count"
scalar MeshLAN.host[0].lo0.lo droppedPkBitError:count 0
attr interpolationmode none
attr source dropPkBitError
attr title "packets dropped/bit error, count"
scalar MeshLAN.host[0].lo0.lo droppedPkBitError:sum(packetBytes) 0
attr interpolationmode none
attr source dropPkBitError
attr title "packets dropped/bit error, sum(packetBytes)"
scalar MeshLAN.host[0].lo0.lo rcvdPkFromHL:count 1544
attr interpolationmode none
attr source packetReceivedFromUpper
attr title "packets received from higher layer, count"
scalar MeshLAN.host[0].lo0.lo rcvdPkFromHL:sum(packetBytes) 1038224
attr interpolationmode none
attr source packetReceivedFromUpper
attr title "packets received from higher layer, sum(packetBytes)"
scalar MeshLAN.host[0].lo0.lo passedUpPk:count 1544
attr interpolationmode none
attr source packetSentToUpper
attr title "packets passed to higher layer, count"
scalar MeshLAN.host[0].lo0.lo passedUpPk:sum(packetBytes) 1038224
attr interpolationmode none
attr source packetSentToUpper
attr title "packets passed to higher layer, sum(packetBytes)"
scalar MeshLAN.host[0].eth[0].queue.pauseQueue queueLength:max nan
attr interpolationmode sample-hold
attr title "queue length, max"
scalar MeshLAN.host[0].eth[0].queue.pauseQueue queueLength:timeavg nan
attr interpolationmode sample-hold
attr title "queue length, timeavg"
statistic MeshLAN.host[0].eth[0].queue.pauseQueue queueingTime:histogram
field count 0
field mean nan
field stddev nan
field min nan
field max nan
field sum 0
field sqrsum 0
attr interpolationmode none
attr title "queueing time, histogram"
bin	-inf	0
bin	-0.5	0
bin	-0.46666666666667	0
bin	-0.43333333333333	0
bin	-0.4	0
bin	-0.36666666666667	0
bin	-0.33333333333333	0
bin	-0.3	0
bin	-0.26666666666667	0
bin	-0.23333333333333	0
bin	-0.2	0
bin	-0.16666666666667	0
bin	-0.13333333333333	0
bin	-0.1	0
bin	-0.066666666666667	0
bin	-0.033333333333333	0
bin	0	0
bin	0.033333333333333	0
bin	0.066666666666667	0
bin	0.1	0
bin	0.13333333333333	0
bin	0.16666666666667	0
bin	0.2	0
bin	0.23333333333333	0
bin	0.26666666666667	0
bin	0.3	0
bin	0.33333333333333	0
bin	0.36666666666667	0
bin	0.4	0
bin	0.43333333333333	0
bin	0.46666666666667	0
bin	0.5	0
scalar MeshLAN.host[0].eth[0].queue.pauseQueue dropPk:count 0
attr interpolationmode none
attr source dropPkByQueue
attr title "dropped packets, count"
scalar MeshLAN.host[0].eth[0].queue.pauseQueue dropPk:sum(packetBytes) 0
attr interpolationmode none
attr source dropPkByQueue
attr title "dropped packets, sum(packetBytes)"
scalar MeshLAN.host[0].eth[0].queue.pauseQueue rcvdPk:count 0
attr interpolationmode none
attr title "received packets, count"
scalar MeshLAN.host[0].eth[0].queue.pauseQueue rcvdPk:sum(packetBytes) 0
attr interpolationmode none
attr title "received packets, sum(packetBytes)"
scalar MeshLAN.host[0].eth[0].queue.dataQueue queueLength:max 10
attr interpolationmode sample-hold
attr title "queue length, max"
scalar MeshLAN.host[0].eth[0].queue.dataQueue queueLength:timeavg 9.5445707974209
attr interpolationmode sample-hold
attr title "queue length, timeavg"
statistic MeshLAN.host[0].eth[0].queue.dataQueue queueingTime:histogram
field count 22089
field mean 0.0064808922696743
field stddev 0.00073464775235358
field min 0.00247789307
field max 0.008424803677
field sum 143.15642934483
field sqrsum 0.93970245158011
attr interpolationmode none
attr title "queueing time, histogram"
bin	-inf	1
bin	0.0029940031835	0
bin	0.0031867665439667	2
bin	0.0033795299044333	4
bin	0.0035722932649	8
bin	0.0037650566253667	10
bin	0.0039578199858333	27
bin	0.0041505833463	44
bin	0.0043433467067667	99
bin	0.0045361100672333	114
bin	0.0047288734277	218
bin	0.0049216367881667	344
bin	0.0051144001486333	529
bin	0.0053071635091	741
bin	0.0054999268695667	985
bin	0.0056926902300333	1406
bin	0.0058854535905	1687
bin	0.0060782169509667	1997
bin	0.0062709803114333	2183
bin	0.0064637436719	2293
bin	0.0066565070323667	2216
bin	0.0068492703928333	2043
bin	0.0070420337533	1740
bin	0.0072347971137667	1314
bin	0.0074275604742333	999
bin	0.0076203238347	585
bin	0.0078130871951667	305
bin	0.0080058505556333	149
bin	0.0081986139161	42
bin	0.0083913772765667	4
bin	0.0085841406370333	0
bin	0.0087769039975	0
scalar MeshLAN.host[0].eth[0].queue.dataQueue dropPk:count 60941
attr interpolationmode none
attr source dropPkByQueue
attr title "dropped packets, count"
scalar MeshLAN.host[0].eth[0].queue.dataQueue dropPk:sum(packetBytes) 40204260
attr interpolationmode none
attr source dropPkByQueue
attr title "dropped packets, sum(packetBytes)"
scalar MeshLAN.host[0].eth[0].queue.dataQueue rcvdPk:count 83031
attr interpolationmode none
attr title "received packets, count"
scalar MeshLAN.host[0].eth[0].queue.dataQueue rcvdPk:sum(packetBytes) 58513493
attr interpolationmode none
attr title "received packets, sum(packetBytes)"
scalar MeshLAN.host[0].eth[0].mac "simulated time" 20
scalar MeshLAN.host[0].eth[0].mac full-duplex 1
scalar MeshLAN.host[0].eth[0].mac "frames/sec sent" 1471.3
scalar MeshLAN.host[0].eth[0].mac "frames/sec rcvd" 914.6
scalar MeshLAN.host[0].eth[0].mac "bits/sec sent" 9741049.6
scalar MeshLAN.host[0].eth[0].mac "bits/sec rcvd" 5131863.2
scalar MeshLAN.host[0].eth[0].mac "rx channel idle (%)" 48.096024
scalar MeshLAN.host[0].eth[0].mac "rx channel utilization (%)" 51.903976
scalar MeshLAN.host[0].eth[0].mac rxPkFromHL:count 22089
attr interpolationmode none
attr source rxPkFromHL
attr title "packet bytes from higher layer, count"
scalar MeshLAN.host[0].eth[0].mac rxPkFromHL:sum(packetBytes) 18307610
attr interpolationmode none
attr source rxPkFromHL
attr title "packet bytes from higher layer, sum(packetBytes)"
scalar MeshLAN.host[0].eth[0].mac rxPausePkUnits:count 0
attr interpolationmode none
attr title "pause units received, count"
scalar MeshLAN.host[0].eth[0].mac rxPausePkUnits:sum 0
attr interpolationmode none
attr title "pause units received, sum"
scalar MeshLAN.host[0].eth[0].mac txPausePkUnits:count 0
attr interpolationmode none
attr title "pause units sent, count"
scalar MeshLAN.host[0].eth[0].mac txPausePkUnits:sum 0
attr interpolationmode none
attr title "pause units sent, sum"
scalar MeshLAN.host[0].eth[0].mac txPk:count 22089
attr interpolationmode none
attr source txPk
attr title "packets transmitted, count"
scalar MeshLAN.host[0].eth[0].mac txPk:sum(packetBytes) 18307382
attr interpolationmode none
attr source txPk
attr title "packets transmitted, sum(packetBytes)"
scalar MeshLAN.host[0].eth[0].mac droppedPkNotForUs:count 0
attr interpolationmode none
attr source dropPkNotForUs
attr title "packets dropped/not for us, count"
scalar MeshLAN.host[0].eth[0].mac droppedPkNotForUs:sum(packetBytes) 0
attr interpolationmode none
attr source dropPkNotForUs
attr title "packets dropped/not for us, sum(packetBytes)"
scalar MeshLAN.host[0].eth[0].mac droppedPkBitError:count 0
attr interpolationmode none
attr source dropPkBitError
attr title "packets dropped/bit error, count"
scalar MeshLAN.host[0].eth[0].mac droppedPkBitError:sum(packetBytes) 0
attr interpolationmode none
attr source dropPkBitError
attr title "packets dropped/bit error, sum(packetBytes)"
scalar MeshLAN.host[0].eth[0].mac droppedPkIfaceDown:count 0
attr interpolationmode none
attr source dropPkIfaceDown
attr title "packets dropped/interface down, count"
scalar MeshLAN.host[0].eth[0].mac droppedPkIfaceDown:sum(packetBytes) 0
attr interpolationmode none
attr source dropPkIfaceDown
attr title "packets dropped/interface down, sum(packetBytes)"
scalar MeshLAN.host[0].eth[0].mac rxPkOk:count 13547
attr interpolationmode none
attr source rxPkOk
attr title "packets received OK, count"
scalar MeshLAN.host[0].eth[0].mac rxPkOk:sum(packetBytes) 9476458
attr interpolationmode none
attr source rxPkOk
attr title "packets received OK, sum(packetBytes)"
scalar MeshLAN.host[0].eth[0].mac passedUpPk:count 13547
attr interpolationmode none
attr source packetSentToUpper
attr title "packets passed to higher layer, count"
scalar MeshLAN.host[0].eth[0].mac passedUpPk:sum(packetBytes) 9476458
attr interpolationmode none
attr source packetSentToUpper
attr title "packets passed to higher layer, sum(packetBytes)"
scalar MeshLAN.host[0].eth[0].encap pauseSent:count 0
attr title "pause sent, count"
scalar MeshLAN.host[0].eth[0].encap pauseSent:sum 0
attr title "pause sent, sum"
scalar MeshLAN.host[0].eth[0].encap decapPk:count 13547
attr interpolationmode none
attr source decapPk
attr title "packets decapsulated, count"
scalar MeshLAN.host[0].eth[0].encap decapPk:sum(packetBytes) 9232024
attr interpolationmode none
attr source decapPk
attr title "packets decapsulated, sum(packetBytes)"
scalar MeshLAN.host[0].eth[0].encap encapPk:count 83031
attr interpolationmode none
attr source encapPk
attr title "packets encapsulated, count"
scalar MeshLAN.host[0].eth[0].encap encapPk:sum(packetBytes) 57004196
attr interpolationmode none
attr source encapPk
attr title "packets encapsulated, sum(packetBytes)"
scalar MeshLAN.host[0].pingApp[0] "Pings sent" 377
scalar MeshLAN.host[0].pingApp[0] "ping loss rate (%)" 94.960212201592
scalar MeshLAN.host[0].pingApp[0] "ping out-of-order rate (%)" 0
scalar MeshLAN.host[0].pingApp[0] pingRxSeq:count 17
attr interpolationmode none
attr title "ping rx seq, count"
scalar MeshLAN.host[0].pingApp[0] pingTxSeq:count 288
attr interpolationmode none
attr title "ping tx seq, count"
scalar MeshLAN.host[0].pingApp[0] numOutOfOrderArrivals:last nan
attr interpolationmode none
attr title "ping out-of-order arrivals, last"
scalar MeshLAN.host[0].pingApp[0] numLost:last 338
attr interpolationmode none
attr title "pings lost, last"
scalar MeshLAN.host[0].pingApp[0] rtt:mean 0.0094551256648667
attr interpolationmode none
attr title "ping round-trip time, mean"
attr unit s
scalar MeshLAN.host[0].pingApp[1] "Pings sent" 377
scalar MeshLAN.host[0].pingApp[1] "ping loss rate (%)" 90.981432360743
scalar MeshLAN.host[0].pingApp[1] "ping out-of-order rate (%)" 0
scalar MeshLAN.host[0].pingApp[1] pingRxSeq:count 27
attr interpolationmode none
attr title "ping rx seq, count"
scalar MeshLAN.host[0].pingApp[1] pingTxSeq:count 289
attr interpolationmode none
attr title "ping tx seq, count"
scalar MeshLAN.host[0].pingApp[1] numOutOfOrderArrivals:last nan
attr interpolationmode none
attr title "ping out-of-order arrivals, last"
scalar MeshLAN.host[0].pingApp[1] numLost:last 330
attr interpolationmode none
attr title "pings lost, last"
scalar MeshLAN.host[0].pingApp[1] rtt:mean 0.010531688247333
attr interpolationmode none
attr title "ping round-trip time, mean"
attr unit s
scalar MeshLAN.host[0].pingApp[2] "Pings sent" 379
scalar MeshLAN.host[0].pingApp[2] "ping loss rate (%)" 65.435356200528
scalar MeshLAN.host[0].pingApp[2] "ping out-of-order rate (%)" 0
scalar MeshLAN.host[0].pingApp[2] pingRxSeq:count 97
attr interpolationmode none
attr title "ping rx seq, count"
scalar MeshLAN.host[0].pingApp[2] pingTxSeq:count 286
attr interpolationmode none
attr title "ping tx seq, count"
scalar MeshLAN.host[0].pingApp[2] numOutOfOrderArrivals:last nan
attr interpolationmode none
attr title "ping out-of-order arrivals, last"
scalar MeshLAN.host[0].pingApp[2] numLost:last 245
attr interpolationmode none
attr title "pings lost, last"
scalar MeshLAN.host[0].pingApp[2] rtt:mean 0.0094787230754211
attr interpolationmode none
attr title "ping round-trip time, mean"
attr unit s
scalar MeshLAN.host[0].pingApp[3] "Pings sent" 374
scalar MeshLAN.host[0].pingApp[3] "ping loss rate (%)" 60.695187165775
scalar MeshLAN.host[0].pingApp[3] "ping out-of-order rate (%)" 0
scalar MeshLAN.host[0].pingApp[3] pingRxSeq:count 116
attr interpolationmode none
attr title "ping rx seq, count"
scalar MeshLAN.host[0].pingApp[3] pingTxSeq:count 290
attr interpolationmode none
attr title "ping tx seq, count"
scalar MeshLAN.host[0].pingApp[3] numOutOfOrderArrivals:last nan
attr interpolationmode none
attr title "ping out-of-order arrivals, last"
scalar MeshLAN.host[0].pingApp[3] numLost:last 225
attr interpolationmode none
attr title "pings lost, last"
scalar MeshLAN.host[0].pingApp[3] rtt:mean 0.0097486300571293
attr interpolationmode none
attr title "ping round-trip time, mean"
attr unit s
scalar MeshLAN.host[0].pingApp[4] "Pings sent" 387
scalar MeshLAN.host[0].pingApp[4] "ping loss rate (%)" 64.082687338501
scalar MeshLAN.host[0].pingApp[4] "ping out-of-order rate (%)" 0
scalar MeshLAN.host[0].pingApp[4] pingRxSeq:count 103
attr interpolationmode none
attr title "ping rx seq, count"
scalar MeshLAN.host[0].pingApp[4] pingTxSeq:count 290
attr interpolationmode none
attr title "ping tx seq, count"
scalar MeshLAN.host[0].pingApp[4] numOutOfOrderArrivals:last nan
attr interpolationmode none
attr title "ping out-of-order arrivals, last"
scalar MeshLAN.host[0].pingApp[4] numLost:last 245
attr interpolationmode none
attr title "pings lost, last"
scalar MeshLAN.host[0].pingApp[4] rtt:mean 0.0093394923261863
attr interpolationmode none
attr title "ping round-trip time, mean"
attr unit s
scalar MeshLAN.host[0].pingApp[5] "Pings sent" 377
scalar MeshLAN.host[0].pingApp[5] "ping loss rate (%)" 90.716180371353
scalar MeshLAN.host[0].pingApp[5] "ping out-of-order rate (%)" 0
scalar MeshLAN.host[0].pingApp[5] pingRxSeq:count 27
attr interpolationmode none
attr title "ping rx seq, count"
scalar MeshLAN.host[0].pingApp[5] pingTxSeq:count 291
attr interpolationmode none
attr title "ping tx seq, count"
scalar MeshLAN.host[0].pingApp[5] numOutOfOrderArrivals:last nan
attr interpolationmode none
attr title "ping out-of-order arrivals, last"
scalar MeshLAN.host[0].pingApp[5] numLost:last 342
attr interpolationmode none
attr title "pings lost, last"
scalar MeshLAN.host[0].pingApp[5] rtt:mean 0.0096023732188261
attr interpolationmode none
attr title "ping round-trip time, mean"
attr unit s
scalar MeshLAN.host[0].pingApp[6] "Pings sent" 385
scalar MeshLAN.host[0].pingApp[6] "ping loss rate (%)" 59.74025974026
scalar MeshLAN.host[0].pingApp[6] "ping out-of-order rate (%)" 0
scalar MeshLAN.host[0].pingApp[6] pingRxSeq:count 116
attr interpolationmode none
attr title "ping rx seq, count"
scalar MeshLAN.host[0].pingApp[6] pingTxSeq:count 287
attr interpolationmode none
attr title "ping tx seq, count"
scalar MeshLAN.host[0].pingApp[6] numOutOfOrderArrivals:last nan
attr interpolationmode none
attr title "ping out-of-order arrivals, last"
scalar MeshLAN.host[0].pingApp[6] numLost:last 228
attr interpolationmode none
attr title "pings lost, last"
scalar MeshLAN.host[0].pingApp[6] rtt:mean 0.0093135392571532
attr interpolationmode none
attr title "ping round-trip time, mean"
attr unit s
scalar MeshLAN.host[0].pingApp[7] "Pings sent" 390
scalar MeshLAN.host[0].pingApp[7] "ping loss rate (%)" 63.333333333333
scalar MeshLAN.host[0].pingApp[7] "ping out-of-order rate (%)" 0
scalar MeshLAN.host[0].pingApp[7] pingRxSeq:count 97
attr interpolationmode none
attr title "ping rx seq, count"
scalar MeshLAN.host[0].pingApp[7] pingTxSeq:count 296
attr interpolationmode none
attr title "ping tx seq, count"
scalar MeshLAN.host[0].pingApp[7] numOutOfOrderArrivals:last nan
attr interpolationmode none
attr title "ping out-of-order arrivals, last"
scalar MeshLAN.host[0].pingApp[7] numLost:last 245
attr interpolationmode none
attr title "pings lost, last"
scalar MeshLAN.host[0].pingApp[7] rtt:mean 0.010077178697245
attr interpolationmode none
attr title "ping round-trip time, mean"
attr unit s
scalar MeshLAN.host[0].pingApp[8] "Pings sent" 394
scalar MeshLAN.host[0].pingApp[8] "ping loss rate (%)" 60.913705583756
scalar MeshLAN.host[0].pingApp[8] "ping out-of-order rate (%)" 0
scalar MeshLAN.host[0].pingApp[8] pingRxSeq:count 111
attr interpolationmode none
attr title "ping rx seq, count"
scalar MeshLAN.host[0].pingApp[8] pingTxSeq:count 294
attr interpolationmode none
attr title "ping tx seq, count"
scalar MeshLAN.host[0].pingApp[8] numOutOfOrderArrivals:last nan
attr interpolationmode none
attr title "ping out-of-order arrivals, last"
scalar MeshLAN.host[0].pingApp[8] numLost:last 239
attr interpolationmode none
attr title "pings lost, last"
scalar MeshLAN.host[0].pingApp[8] rtt:mean 0.0076266834678396
attr interpolationmode none
attr title "ping round-trip time, mean"
attr unit s
scalar MeshLAN.host[0].pingApp[9] "Pings sent" 384
scalar MeshLAN.host[0].pingApp[9] "ping loss rate (%)" 90.104166666667
scalar MeshLAN.host[0].pingApp[9] "ping out-of-order rate (%)" 0
scalar MeshLAN.host[0].pingApp[9] pingRxSeq:count 31
attr interpolationmode none
attr title "ping rx seq, count"
scalar MeshLAN.host[0].pingApp[9] pingTxSeq:count 285
attr interpolationmode none
attr title "ping tx seq, count"
scalar MeshLAN.host[0].pingApp[9] numOutOfOrderArrivals:last nan
attr interpolationmode none
attr title "ping out-of-order arrivals, last"
scalar MeshLAN.host[0].pingApp[9] numLost:last 343
attr interpolationmode none
attr title "pings lost, last"
scalar MeshLAN.host[0].pingApp[9] rtt:mean 0.01003329787975
attr interpolationmode none
attr title "ping round-trip time, mean"
attr unit s
scalar MeshLAN.host[0].pingApp[10] "Pings sent" 385
scalar MeshLAN.host[0].pingApp[10] "ping loss rate (%)" 62.597402597403
scalar MeshLAN.host[0].pingApp[10] "ping out-of-order rate (%)" 0
scalar MeshLAN.host[0].pingApp[10] pingRxSeq:count 113
attr interpolationmode none
attr title "ping rx seq, count"
scalar MeshLAN.host[0].pingApp[10] pingTxSeq:count 293
attr interpolationmode none
attr title "ping tx seq, count"
scalar MeshLAN.host[0].pingApp[10] numOutOfOrderArrivals:last nan
attr interpolationmode none
attr title "ping out-of-order arrivals, last"
scalar MeshLAN.host[0].pingApp[10] numLost:last 236
attr interpolationmode none
attr title "pings lost, last"
scalar MeshLAN.host[0].pingApp[10] rtt:mean 0.0099452057398165
attr interpolationmode none
attr title "ping round-trip time, mean"
attr unit s
scalar MeshLAN.host[0].pingApp[11] "Pings sent" 382
scalar MeshLAN.host[0].pingApp[11] "ping loss rate (%)" 93.193717277487
scalar MeshLAN.host[0].pingApp[11] "ping out-of-order rate (%)" 0
scalar MeshLAN.host[0].pingApp[11] pingRxSeq:count 19
attr interpolationmode none
attr title "ping rx seq, count"
scalar MeshLAN.host[0].pingApp[11] pingTxSeq:count 285
attr interpolationmode none
attr title "ping tx seq, count"
scalar MeshLAN.host[0].pingApp[11] numOutOfOrderArrivals:last nan
attr interpolationmode none
attr title "ping out-of-order arrivals, last"
scalar MeshLAN.host[0].pingApp[11] numLost:last 350
attr interpolationmode none
attr title "pings lost, last"
scalar MeshLAN.host[0].pingApp[11] rtt:mean 0.010680377812571
attr interpolationmode none
attr title "ping round-trip time, mean"
attr unit s
scalar MeshLAN.host[0].pingApp[12] "Pings sent" 413
scalar MeshLAN.host[0].pingApp[12] "ping loss rate (%)" 62.953995157385
scalar MeshLAN.host[0].pingApp[12] "ping out-of-order rate (%)" 0
scalar MeshLAN.host[0].pingApp[12] pingRxSeq:count 119
attr interpolationmode none
attr title "ping rx seq, count"
scalar MeshLAN.host[0].pingApp[12] pingTxSeq:count 315
attr interpolationmode none
attr title "ping tx seq, count"
scalar MeshLAN.host[0].pingApp[12] numOutOfOrderArrivals:last nan
attr interpolationmode none
attr title "ping out-of-order arrivals, last"
scalar MeshLAN.host[0].pingApp[12] numLost:last 258
attr interpolationmode none
attr title "pings lost, last"
scalar MeshLAN.host[0].pingApp[12] rtt:mean 0.0096744091889237
attr interpolationmode none
attr title "ping round-trip time, mean"
attr unit s
scalar MeshLAN.host[0].pingApp[13] "Pings sent" 370
scalar MeshLAN.host[0].pingApp[13] "ping loss rate (%)" 94.054054054054
scalar MeshLAN.host[0].pingApp[13] "ping out-of-order rate (%)" 0
scalar MeshLAN.host[0].pingApp[13] pingRxSeq:count 17
attr interpolationmode none
attr title "ping rx seq, count"
scalar MeshLAN.host[0].pingApp[13] pingTxSeq:count 279
attr interpolationmode none
attr title "ping tx seq, count"
scalar MeshLAN.host[0].pingApp[13] numOutOfOrderArrivals:last nan
attr interpolationmode none
attr title "ping out-of-order arrivals, last"
scalar MeshLAN.host[0].pingApp[13] numLost:last 346
attr interpolationmode none
attr title "pings lost, last"
scalar MeshLAN.host[0].pingApp[13] rtt:mean 0.0094414599023846
attr interpolationmode none
attr title "ping round-trip time, mean"
attr unit s
scalar MeshLAN.host[0].pingApp[14] "Pings sent" 389
scalar MeshLAN.host[0].pingApp[14] "ping loss rate (%)" 61.696658097686
scalar MeshLAN.host[0].pingApp[14] "ping out-of-order rate (%)" 0
scalar MeshLAN.host[0].pingApp[14] pingRxSeq:count 107
attr interpolationmode none
attr title "ping rx seq, count"
scalar MeshLAN.host[0].pingApp[14] pingTxSeq:count 295
attr interpolationmode none
attr title "ping tx seq, count"
scalar MeshLAN.host[0].pingApp[14] numOutOfOrderArrivals:last nan
attr interpolationmode none
attr title "ping out-of-order arrivals, last"
scalar MeshLAN.host[0].pingApp[14] numLost:last 238
attr interpolationmode none
attr title "pings lost, last"
scalar MeshLAN.host[0].pingApp[14] rtt:mean 0.009591551382625
attr interpolationmode none
attr title "ping round-trip time, mean"
attr unit s
scalar MeshLAN.host[0].pingApp[15] "Pings sent" 394
scalar MeshLAN.host[0].pingApp[15] "ping loss rate (%)" 64.720812182741
scalar MeshLAN.host[0].pingApp[15] "ping out-of-order rate (%)" 0
scalar MeshLAN.host[0].pingApp[15] pingRxSeq:count 97
attr interpolationmode none
attr title "ping rx seq, count"
scalar MeshLAN.host[0].pingApp[15] pingTxSeq:count 295
attr interpolationmode none
attr title "ping tx seq, count"
scalar MeshLAN.host[0].pingApp[15] numOutOfOrderArrivals:last nan
attr interpolationmode none
attr title "ping out-of-order arrivals, last"
scalar MeshLAN.host[0].pingApp[15] numLost:last 252
attr interpolationmode none
attr title "pings lost, last"
scalar MeshLAN.host[0].pingApp[15] rtt:mean 0.0090353861009278
attr interpolationmode none
attr title "ping round-trip time, mean"
attr unit s
scalar MeshLAN.host[0].pingApp[16] "Pings sent" 386
scalar MeshLAN.host[0].pingApp[16] "ping loss rate (%)" 58.80829015544
scalar MeshLAN.host[0].pingApp[16] "ping out-of-order rate (%)" 0
scalar MeshLAN.host[0].pingApp[16] pingRxSeq:count 119
attr interpolationmode none
attr title "ping rx seq, count"
scalar MeshLAN.host[0].pingApp[16] pingTxSeq:count 291
attr interpolationmode none
attr title "ping tx seq, count"
scalar MeshLAN.host[0].pingApp[16] numOutOfOrderArrivals:last nan
attr interpolationmode none
attr title "ping out-of-order arrivals, last"
scalar MeshLAN.host[0].pingApp[16] numLost:last 227
attr interpolationmode none
attr title "pings lost, last"
scalar MeshLAN.host[0].pingApp[16] rtt:mean 0.0091825762861913
attr interpolationmode none
attr title "ping round-trip time, mean"
attr unit s
scalar MeshLAN.host[0].pingApp[17] "Pings sent" 395
scalar MeshLAN.host[0].pingApp[17] "ping loss rate (%)" 65.063291139241
scalar MeshLAN.host[0].pingApp[17] "ping out-of-order rate (%)" 0
scalar MeshLAN.host[0].pingApp[17] pingRxSeq:count 107
attr interpolationmode none
attr title "ping rx seq, count"
scalar MeshLAN.host[0].pingApp[17] pingTxSeq:count 300
attr interpolationmode none
attr title "ping tx seq, count"
scalar MeshLAN.host[0].pingApp[17] numOutOfOrderArrivals:last nan
attr interpolationmode none
attr title "ping out-of-order arrivals, last"
scalar MeshLAN.host[0].pingApp[17] numLost:last 255
attr interpolationmode none
attr title "pings lost, last"
scalar MeshLAN.host[0].pingApp[17] rtt:mean 0.0096739428308269
attr interpolationmode none
attr title "ping round-trip time, mean"
attr unit s
scalar MeshLAN.host[0].pingApp[18] "Pings sent" 398
scalar MeshLAN.host[0].pingApp[18] "ping loss rate (%)" 94.221105527638
scalar MeshLAN.host[0].pingApp[18] "ping out-of-order rate (%)" 0
scalar MeshLAN.host[0].pingApp[18] pingRxSeq:count 18
attr interpolationmode none
attr title "ping rx seq, count"
scalar MeshLAN.host[0].pingApp[18] pingTxSeq:count 305
attr interpolationmode none
attr title "ping tx seq, count"
scalar MeshLAN.host[0].pingApp[18] numOutOfOrderArrivals:last nan
attr interpolationmode none
attr title "ping out-of-order arrivals, last"
scalar MeshLAN.host[0].pingApp[18] numLost:last 352
attr interpolationmode none
attr title "pings lost, last"
scalar MeshLAN.host[0].pingApp[18] rtt:mean 0.011636532341118
attr interpolationmode none
attr title "ping round-trip time, mean"
attr unit s
scalar MeshLAN.host[0].pingApp[19] "Pings sent" 394
scalar MeshLAN.host[0].pingApp[19] "ping loss rate (%)" 93.654822335025
scalar MeshLAN.host[0].pingApp[19] "ping out-of-order rate (%)" 0
scalar MeshLAN.host[0].pingApp[19] pingRxSeq:count 19
attr interpolationmode none
attr title "ping rx seq, count"
scalar MeshLAN.host[0].pingApp[19] pingTxSeq:count 296
attr interpolationmode none
attr title "ping tx seq, count"
scalar MeshLAN.host[0].pingApp[19] numOutOfOrderArrivals:last nan
attr interpolationmode none
attr title "ping out-of-order arrivals, last"
scalar MeshLAN.host[0].pingApp[19] numLost:last 334
attr interpolationmode none
attr title "pings lost, last"
scalar MeshLAN.host[0].pingApp[19] rtt:mean 0.0099954686998
attr interpolationmode none
attr title "ping round-trip time, mean"
attr unit s
scalar MeshLAN.host[0].pingApp[20] "Pings sent" 366
scalar MeshLAN.host[0].pingApp[20] "ping loss rate (%)" 94.808743169399
scalar MeshLAN.host[0].pingApp[20] "ping out-of-order rate (%)" 0
scalar MeshLAN.host[0].pingApp[20] pingRxSeq:count 15
attr interpolationmode none
attr title "ping rx seq, count"
scalar MeshLAN.host[0].pingApp[20] pingTxSeq:count 284
attr interpolationmode none
attr title "ping tx seq, count"
scalar MeshLAN.host[0].pingApp[20] numOutOfOrderArrivals:last nan
attr interpolationmode none
attr title "ping out-of-order arrivals, last"
scalar MeshLAN.host[0].pingApp[20] numLost:last 337
attr interpolationmode none
attr title "pings lost, last"
scalar MeshLAN.host[0].pingApp[20] rtt:mean 0.0094941012537143
attr interpolationmode none
attr title "ping round-trip time, mean"
attr unit s
scalar MeshLAN.host[0].pingApp[21] "Pings sent" 376
scalar MeshLAN.host[0].pingApp[21] "ping loss rate (%)" 60.63829787234
scalar MeshLAN.host[0].pingApp[21] "ping out-of-order rate (%)" 0
scalar MeshLAN.host[0].pingApp[21] pingRxSeq:count 102
attr interpolationmode none
attr title "ping rx seq, count"
scalar MeshLAN.host[0].pingApp[21] pingTxSeq:count 286
attr interpolationmode none
attr title "ping tx seq, count"
scalar MeshLAN.host[0].pingApp[21] numOutOfOrderArrivals:last nan
attr interpolationmode none
attr title "ping out-of-order arrivals, last"
scalar MeshLAN.host[0].pingApp[21] numLost:last 228
attr interpolationmode none
attr title "pings lost, last"
scalar MeshLAN.host[0].pingApp[21] rtt:mean 0.0099239258448878
attr interpolationmode none
attr title "ping round-trip time, mean"
attr unit s
scalar MeshLAN.host[0].pingApp[22] "Pings sent" 387
scalar MeshLAN.host[0].pingApp[22] "ping loss rate (%)" 95.607235142119
scalar MeshLAN.host[0].pingApp[22] "ping out-of-order rate (%)" 0
scalar MeshLAN.host[0].pingApp[22] pingRxSeq:count 13
attr interpolationmode none
attr title "ping rx seq, count"
scalar MeshLAN.host[0].pingApp[22] pingTxSeq:count 294
attr interpolationmode none
attr title "ping tx seq, count"
scalar MeshLAN.host[0].pingApp[22] numOutOfOrderArrivals:last nan
attr interpolationmode none
attr title "ping out-of-order arrivals, last"
scalar MeshLAN.host[0].pingApp[22] numLost:last 330
attr interpolationmode none
attr title "pings lost, last"
scalar MeshLAN.host[0].pingApp[22] rtt:mean 0.0093875540144
attr interpolationmode none
attr title "ping round-trip time, mean"
attr unit s
scalar MeshLAN.host[0].pingApp[23] "Pings sent" 390
scalar MeshLAN.host[0].pingApp[23] "ping loss rate (%)" 61.794871794872
scalar MeshLAN.host[0].pingApp[23] "ping out-of-order rate (%)" 0
scalar MeshLAN.host[0].pingApp[23] pingRxSeq:count 113
attr interpolationmode none
attr title "ping rx seq, count"
scalar MeshLAN.host[0].pingApp[23] pingTxSeq:count 295
attr interpolationmode none
attr title "ping tx seq, count"
scalar MeshLAN.host[0].pingApp[23] numOutOfOrderArrivals:last nan
attr interpolationmode none
attr title "ping out-of-order arrivals, last"
scalar MeshLAN.host[0].pingApp[23] numLost:last 239
attr interpolationmode none
attr title "pings lost, last"
scalar MeshLAN.host[0].pingApp[23] rtt:mean 0.0080154744805575
attr interpolationmode none
attr title "ping round-trip time, mean"
attr unit s
scalar MeshLAN.host[0].pingApp[24] "Pings sent" 399
scalar MeshLAN.host[0].pingApp[24] "ping loss rate (%)" 92.731829573935
scalar MeshLAN.host[0].pingApp[24] "ping out-of-order rate (%)" 0
scalar MeshLAN.host[0].pingApp[24] pingRxSeq:count 22
attr interpolationmode none
attr title "ping rx seq, count"
scalar MeshLAN.host[0].pingApp[24] pingTxSeq:count 296
attr interpolationmode none
attr title "ping tx seq, count"
scalar MeshLAN.host[0].pingApp[24] numOutOfOrderArrivals:last nan
attr interpolationmode none
attr title "ping out-of-order arrivals, last"
scalar MeshLAN.host[0].pingApp[24] numLost:last 349
attr interpolationmode none
attr title "pings lost, last"
scalar MeshLAN.host[0].pingApp[24] rtt:mean 0.010291006683412
attr interpolationmode none
attr title "ping round-trip time, mean"
attr unit s
scalar MeshLAN.host[0].pingApp[25] "Pings sent" 390
scalar MeshLAN.host[0].pingApp[25] "ping loss rate (%)" 94.102564102564
scalar MeshLAN.host[0].pingApp[25] "ping out-of-order rate (%)" 0
scalar MeshLAN.host[0].pingApp[25] pingRxSeq:count 17
attr interpolationmode none
attr title "ping rx seq, count"
scalar MeshLAN.host[0].pingApp[25] pingTxSeq:count 295
attr interpolationmode none
attr title "ping tx seq, count"
scalar MeshLAN.host[0].pingApp[25] numOutOfOrderArrivals:last nan
attr interpolationmode none
attr title "ping out-of-order arrivals, last"
scalar MeshLAN.host[0].pingApp[25] numLost:last 350
attr interpolationmode none
attr title "pings lost, last"
scalar MeshLAN.host[0].pingApp[25] rtt:mean 0.009613252927
attr interpolationmode none
attr title "ping round-trip time, mean"
attr unit s
scalar MeshLAN.host[0].pingApp[26] "Pings sent" 377
scalar MeshLAN.host[0].pingApp[26] "ping loss rate (%)" 60.212201591512
scalar MeshLAN.host[0].pingApp[26] "ping out-of-order rate (%)" 0.53050397877984
scalar MeshLAN.host[0].pingApp[26] pingRxSeq:count 105
attr interpolationmode none
attr title "ping rx seq, count"
scalar MeshLAN.host[0].pingApp[26] pingTxSeq:count 284
attr interpolationmode none
attr title "ping tx seq, count"
scalar MeshLAN.host[0].pingApp[26] numOutOfOrderArrivals:last 2
attr interpolationmode none
attr title "ping out-of-order arrivals, last"
scalar MeshLAN.host[0].pingApp[26] numLost:last 222
attr interpolationmode none
attr title "pings lost, last"
scalar MeshLAN.host[0].pingApp[26] rtt:mean 0.00761925243971
attr interpolationmode none
attr title "ping round-trip time, mean"
attr unit s
scalar MeshLAN.host[0].pingApp[27] "Pings sent" 388
scalar MeshLAN.host[0].pingApp[27] "ping loss rate (%)" 92.525773195876
scalar MeshLAN.host[0].pingApp[27] "ping out-of-order rate (%)" 0
scalar MeshLAN.host[0].pingApp[27] pingRxSeq:count 22
attr interpolationmode none
attr title "ping rx seq, count"
scalar MeshLAN.host[0].pingApp[27] pingTxSeq:count 301
attr interpolationmode none
attr title "ping tx seq, count"
scalar MeshLAN.host[0].pingApp[27] numOutOfOrderArrivals:last nan
attr interpolationmode none
attr title "ping out-of-order arrivals, last"
scalar MeshLAN.host[0].pingApp[27] numLost:last 313
attr interpolationmode none
attr title "pings lost, last"
scalar MeshLAN.host[0].pingApp[27] rtt:mean 0.01000415277695
attr interpolationmode none
attr title "ping round-trip time, mean"
attr unit s
scalar MeshLAN.host[0].pingApp[28] "Pings sent" 376
scalar MeshLAN.host[0].pingApp[28] "ping loss rate (%)" 94.148936170213
scalar MeshLAN.host[0].pingApp[28] "ping out-of-order rate (%)" 0
scalar MeshLAN.host[0].pingApp[28] pingRxSeq:count 14
attr interpolationmode none
attr title "ping rx seq, count"
scalar MeshLAN.host[0].pingApp[28] pingTxSeq:count 291
attr interpolationmode none
attr title "ping tx seq, count"
scalar MeshLAN.host[0].pingApp[28] numOutOfOrderArrivals:last nan
attr interpolationmode none
attr title "ping out-of-order arrivals, last"
scalar MeshLAN.host[0].pingApp[28] numLost:last 351
attr interpolationmode none
attr title "pings lost, last"
scalar MeshLAN.host[0].pingApp[28] rtt:mean 0.0097083305814167
attr interpolationmode none
attr title "ping round-trip time, mean"
attr unit s
scalar MeshLAN.host[0].pingApp[29] "Pings sent" 370
scalar MeshLAN.host[0].pingApp[29] "ping loss rate (%)" 64.594594594595
scalar MeshLAN.host[0].pingApp[29] "ping out-of-order rate (%)" 0
scalar MeshLAN.host[0].pingApp[29] pingRxSeq:count 97
attr interpolationmode none
attr title "ping rx seq, count"
scalar MeshLAN.host[0].pingApp[29] pingTxSeq:count 274
attr interpolationmode none
attr title "ping tx seq, count"
scalar MeshLAN.host[0].pingApp[29] numOutOfOrderArrivals:last nan
attr interpolationmode none
attr title "ping out-of-order arrivals, last"
scalar MeshLAN.host[0].pingApp[29] numLost:last 238
attr interpolationmode none
attr title "pings lost, last"
scalar MeshLAN.host[0].pingApp[29] rtt:mean 0.0095843293919175
attr interpolationmode none
attr title "ping round-trip time, mean"
attr unit s
scalar MeshLAN.host[0].pingApp[30] "Pings sent" 392
scalar MeshLAN.host[0].pingApp[30] "ping loss rate (%)" 65.051020408163
scalar MeshLAN.host[0].pingApp[30] "ping out-of-order rate (%)" 0
scalar MeshLAN.host[0].pingApp[30] pingRxSeq:count 105
attr interpolationmode none
attr title "ping rx seq, count"
scalar MeshLAN.host[0].pingApp[30] pingTxSeq:count 304
attr interpolationmode none
attr title "ping tx seq, count"
scalar MeshLAN.host[0].pingApp[30] numOutOfOrderArrivals:last nan
attr interpolationmode none
attr title "ping out-of-order arrivals, last"
scalar MeshLAN.host[0].pingApp[30] numLost:last 255
attr interpolationmode none
attr title "pings lost, last"
scalar MeshLAN.host[0].pingApp[30] rtt:mean 0.0080134901037941
attr interpolationmode none
attr title "ping round-trip time, mean"
attr unit s
scalar MeshLAN.host[0].pingApp[31] "Pings sent" 381
scalar MeshLAN.host[0].pingApp[31] "ping loss rate (%)" 59.055118110236
scalar MeshLAN.host[0].pingApp[31] "ping out-of-order rate (%)" 0
scalar MeshLAN.host[0].pingApp[31] pingRxSeq:count 120
attr interpolationmode none
attr title "ping rx seq, count"
scalar MeshLAN.host[0].pingApp[31] pingTxSeq:count 291
attr interpolationmode none
attr title "ping tx seq, count"
scalar MeshLAN.host[0].pingApp[31] numOutOfOrderArrivals:last nan
attr interpolationmode none
attr title "ping out-of-order arrivals, last"
scalar MeshLAN.host[0].pingApp[31] numLost:last 225
attr interpolationmode none
attr title "pings lost, last"
scalar MeshLAN.host[0].pingApp[31] rtt:mean 0.0093850859356581
attr interpolationmode none
attr title "ping round-trip time, mean"
attr unit s
scalar MeshLAN.host[0].pingApp[32] "Pings sent" 392
scalar MeshLAN.host[0].pingApp[32] "ping loss rate (%)" 94.132653061224
scalar MeshLAN.host[0].pingApp[32] "ping out-of-order rate (%)" 0
scalar MeshLAN.host[0].pingApp[32] pingRxSeq:count 18
attr interpolationmode none
attr title "ping rx seq, count"
scalar MeshLAN.host[0].pingApp[32] pingTxSeq:count 300
attr interpolationmode none
attr title "ping tx seq, count"
scalar MeshLAN.host[0].pingApp[32] numOutOfOrderArrivals:last nan
attr interpolationmode none
attr title "ping out-of-order arrivals, last"
scalar MeshLAN.host[0].pingApp[32] numLost:last 344
attr interpolationmode none
attr title "pings lost, last"
scalar MeshLAN.host[0].pingApp[32] rtt:mean 0.0096833758384444
attr interpolationmode none
attr title "ping round-trip time, mean"
attr unit s
scalar MeshLAN.host[0].pingApp[33] "Pings sent" 403
scalar MeshLAN.host[0].pingApp[33] "ping loss rate (%)" 57.816377171216
scalar MeshLAN.host[0].pingApp[33] "ping out-of-order rate (%)" 0.24813895781638
scalar MeshLAN.host[0].pingApp[33] pingRxSeq:count 128
attr interpolationmode none
attr title "ping rx seq, count"
scalar MeshLAN.host[0].pingApp[33] pingTxSeq:count 303
attr interpolationmode none
attr title "ping tx seq, count"
scalar MeshLAN.host[0].pingApp[33] numOutOfOrderArrivals:last 1
attr interpolationmode none
attr title "ping out-of-order arrivals, last"
scalar MeshLAN.host[0].pingApp[33] numLost:last 228
attr interpolationmode none
attr title "pings lost, last"
scalar MeshLAN.host[0].pingApp[33] rtt:mean 0.0093925278279286
attr interpolationmode none
attr title "ping round-trip time, mean"
attr unit s
scalar MeshLAN.host[0].pingApp[34] "Pings sent" 398
scalar MeshLAN.host[0].pingApp[34] "ping loss rate (%)" 94.472361809045
scalar MeshLAN.host[0].pingApp[34] "ping out-of-order rate (%)" 0
scalar MeshLAN.host[0].pingApp[34] pingRxSeq:count 15
attr interpolationmode none
attr title "ping rx seq, count"
scalar MeshLAN.host[0].pingApp[34] pingTxSeq:count 295
attr interpolationmode none
attr title "ping tx seq, count"
scalar MeshLAN.host[0].pingApp[34] numOutOfOrderArrivals:last nan
attr interpolationmode none
attr title "ping out-of-order arrivals, last"
scalar MeshLAN.host[0].pingApp[34] numLost:last 287
attr interpolationmode none
attr title "pings lost, last"
scalar MeshLAN.host[0].pingApp[34] rtt:mean 0.0099012354153077
attr interpolationmode none
attr title "ping round-trip time, mean"
attr unit s
scalar MeshLAN.host[0].pingApp[35] "Pings sent" 408
scalar MeshLAN.host[0].pingApp[35] "ping loss rate (%)" 62.5
scalar MeshLAN.host[0].pingApp[35] "ping out-of-order rate (%)" 0
scalar MeshLAN.host[0].pingApp[35] pingRxSeq:count 113
attr interpolationmode none
attr title "ping rx seq, count"
scalar MeshLAN.host[0].pingApp[35] pingTxSeq:count 302
attr interpolationmode none
attr title "ping tx seq, count"
scalar MeshLAN.host[0].pingApp[35] numOutOfOrderArrivals:last nan
attr interpolationmode none
attr title "ping out-of-order arrivals, last"
scalar MeshLAN.host[0].pingApp[35] numLost:last 255
attr interpolationmode none
attr title "pings lost, last"
scalar MeshLAN.host[0].pingApp[35] rtt:mean 0.0094882138765189
attr interpolationmode none
attr title "ping round-trip time, mean"
attr unit s
scalar MeshLAN.host[0].pingApp[36] "Pings sent" 383
scalar MeshLAN.host[0].pingApp[36] "ping loss rate (%)" 92.42819843342
scalar MeshLAN.host[0].pingApp[36] "ping out-of-order rate (%)" 0
scalar MeshLAN.host[0].pingApp[36] pingRxSeq:count 24
attr interpolationmode none
attr title "ping rx seq, count"
scalar MeshLAN.host[0].pingApp[36] pingTxSeq:count 293
attr interpolationmode none
attr title "ping tx seq, count"
scalar MeshLAN.host[0].pingApp[36] numOutOfOrderArrivals:last nan
attr interpolationmode none
attr title "ping out-of-order arrivals, last"
scalar MeshLAN.host[0].pingApp[36] numLost:last 334
attr interpolationmode none
attr title "pings lost, last"
scalar MeshLAN.host[0].pingApp[36] rtt:mean 0.011252095675048
attr interpolationmode none
attr title "ping round-trip time, mean"
attr unit s
scalar MeshLAN.host[0].pingApp[37] "Pings sent" 388
scalar MeshLAN.host[0].pingApp[37] "ping loss rate (%)" 65.721649484536
scalar MeshLAN.host[0].pingApp[37] "ping out-of-order rate (%)" 0
scalar MeshLAN.host[0].pingApp[37] pingRxSeq:count 107
attr interpolationmode none
attr title "ping rx seq, count"
scalar MeshLAN.host[0].pingApp[37] pingTxSeq:count 292
attr interpolationmode none
attr title "ping tx seq, count"
scalar MeshLAN.host[0].pingApp[37] numOutOfOrderArrivals:last nan
attr interpolationmode none
attr title "ping out-of-order arrivals, last"
scalar MeshLAN.host[0].pingApp[37] numLost:last 255
attr interpolationmode none
attr title "pings lost, last"
scalar MeshLAN.host[0].pingApp[37] rtt:mean 0.010216028717683
attr interpolationmode none
attr title "ping round-trip time, mean"
attr unit s
scalar MeshLAN.host[0].pingApp[38] "Pings sent" 383
scalar MeshLAN.host[0].pingApp[38] "ping loss rate (%)" 93.994778067885
scalar MeshLAN.host[0].pingApp[38] "ping out-of-order rate (%)" 0
scalar MeshLAN.host[0].pingApp[38] pingRxSeq:count 16
attr interpolationmode none
attr title "ping rx seq, count"
scalar MeshLAN.host[0].pingApp[38] pingTxSeq:count 293
attr interpolationmode none
attr title "ping tx seq, count"
scalar MeshLAN.host[0].pingApp[38] numOutOfOrderArrivals:last nan
attr interpolationmode none
attr title "ping out-of-order arrivals, last"
scalar MeshLAN.host[0].pingApp[38] numLost:last 353
attr interpolationmode none
attr title "pings lost, last"
scalar MeshLAN.host[0].pingApp[38] rtt:mean 0.0092477611521538
attr interpolationmode none
attr title "ping round-trip time, mean"
attr unit s
scalar MeshLAN.host[0].pingApp[39] "Pings sent" 385
scalar MeshLAN.host[0].pingApp[39] "ping loss rate (%)" 93.506493506494
scalar MeshLAN.host[0].pingApp[39] "ping out-of-order rate (%)" 0
scalar MeshLAN.host[0].pingApp[39] pingRxSeq:count 19
attr interpolationmode none
attr title "ping rx seq, count"
scalar MeshLAN.host[0].pingApp[39] pingTxSeq:count 292
attr interpolationmode none
attr title "ping tx seq, count"
scalar MeshLAN.host[0].pingApp[39] numOutOfOrderArrivals:last nan
attr interpolationmode none
attr title "ping out-of-order arrivals, last"
scalar MeshLAN.host[0].pingApp[39] numLost:last 360
attr interpolationmode none
attr title "pings lost, last"
scalar MeshLAN.host[0].pingApp[39] rtt:mean 0.010551943225714
attr interpolationmode none
attr title "ping round-trip time, mean"
attr unit s
scalar MeshLAN.host[0].pingApp[40] "Pings sent" 370
scalar MeshLAN.host[0].pingApp[40] "ping loss rate (%)" 61.891891891892
scalar MeshLAN.host[0].pingApp[40] "ping out-of-order rate (%)" 0
scalar MeshLAN.host[0].pingApp[40] pingRxSeq:count 104
attr interpolationmode none
attr title "ping rx seq, count"
scalar MeshLAN.host[0].pingApp[40] pingTxSeq:count 274
attr interpolationmode none
attr title "ping tx seq, count"
scalar MeshLAN.host[0].pingApp[40] numOutOfOrderArrivals:last nan
attr interpolationmode none
attr title "ping out-of-order arrivals, last"
scalar MeshLAN.host[0].pingApp[40] numLost:last 229
attr interpolationmode none
attr title "pings lost, last"
scalar MeshLAN.host[0].pingApp[40] rtt:mean 0.0083789852132427
attr interpolationmode none
attr title "ping round-trip time, mean"
attr unit s
scalar MeshLAN.host[0].pingApp[41] "Pings sent" 388
scalar MeshLAN.host[0].pingApp[41] "ping loss rate (%)" 91.237113402062
scalar MeshLAN.host[0].pingApp[41] "ping out-of-order rate (%)" 0
scalar MeshLAN.host[0].pingApp[41] pingRxSeq:count 26
attr interpolationmode none
attr title "ping rx seq, count"
scalar MeshLAN.host[0].pingApp[41] pingTxSeq:count 298
attr interpolationmode none
attr title "ping tx seq, count"
scalar MeshLAN.host[0].pingApp[41] numOutOfOrderArrivals:last nan
attr interpolationmode none
attr title "ping out-of-order arrivals, last"
scalar MeshLAN.host[0].pingApp[41] numLost:last 330
attr interpolationmode none
attr title "pings lost, last"
scalar MeshLAN.host[0].pingApp[41] rtt:mean 0.010327301366545
attr interpolationmode none
attr title "ping round-trip time, mean"
attr unit s
scalar MeshLAN.host[0].pingApp[42] "Pings sent" 379
scalar MeshLAN.host[0].pingApp[42] "ping loss rate (%)" 62.532981530343
scalar MeshLAN.host[0].pingApp[42] "ping out-of-order rate (%)" 0
scalar MeshLAN.host[0].pingApp[42] pingRxSeq:count 105
attr interpolationmode none
attr title "ping rx seq, count"
scalar MeshLAN.host[0].pingApp[42] pingTxSeq:count 286
attr interpolationmode none
attr title "ping tx seq, count"
scalar MeshLAN.host[0].pingApp[42] numOutOfOrderArrivals:last nan
attr interpolationmode none
attr title "ping out-of-order arrivals, last"
scalar MeshLAN.host[0].pingApp[42] numLost:last 236
attr interpolationmode none
attr title "pings lost, last"
scalar MeshLAN.host[0].pingApp[42] rtt:mean 0.0092849654171683
attr interpolationmode none
attr title "ping round-trip time, mean"
attr unit s
scalar MeshLAN.host[0].pingApp[43] "Pings sent" 374
scalar MeshLAN.host[0].pingApp[43] "ping loss rate (%)" 62.83422459893
scalar MeshLAN.host[0].pingApp[43] "ping out-of-order rate (%)" 0
scalar MeshLAN.host[0].pingApp[43] pingRxSeq:count 110
attr interpolationmode none
attr title "ping rx seq, count"
scalar MeshLAN.host[0].pingApp[43] pingTxSeq:count 287
attr interpolationmode none
attr title "ping tx seq, count"
scalar MeshLAN.host[0].pingApp[43] numOutOfOrderArrivals:last nan
attr interpolationmode none
attr title "ping out-of-order arrivals, last"
scalar MeshLAN.host[0].pingApp[43] numLost:last 235
attr interpolationmode none
attr title "pings lost, last"
scalar MeshLAN.host[0].pingApp[43] rtt:mean 0.0082181957035648
attr interpolationmode none
attr title "ping round-trip time, mean"
attr unit s
scalar MeshLAN.host[0].pingApp[44] "Pings sent" 384
scalar MeshLAN.host[0].pingApp[44] "ping loss rate (%)" 92.1875
scalar MeshLAN.host[0].pingApp[44] "ping out-of-order rate (%)" 0
scalar MeshLAN.host[0].pingApp[44] pingRxSeq:count 23
attr interpolationmode none
attr title "ping rx seq, count"
scalar MeshLAN.host[0].pingApp[44] pingTxSeq:count 292
attr interpolationmode none
attr title "ping tx seq, count"
scalar MeshLAN.host[0].pingApp[44] numOutOfOrderArrivals:last nan
attr interpolationmode none
attr title "ping out-of-order arrivals, last"
scalar MeshLAN.host[0].pingApp[44] numLost:last 352
attr interpolationmode none
attr title "pings lost, last"
scalar MeshLAN.host[0].pingApp[44] rtt:mean 0.010617528381273
attr interpolationmode none
attr title "ping round-trip time, mean"
attr unit s
scalar MeshLAN.host[0].pingApp[45] "Pings sent" 397
scalar MeshLAN.host[0].pingApp[45] "ping loss rate (%)" 94.206549118388
scalar MeshLAN.host[0].pingApp[45] "ping out-of-order rate (%)" 0
scalar MeshLAN.host[0].pingApp[45] pingRxSeq:count 18
attr interpolationmode none
attr title "ping rx seq, count"
scalar MeshLAN.host[0].pingApp[45] pingTxSeq:count 302
attr interpolationmode none
attr title "ping tx seq, count"
scalar MeshLAN.host[0].pingApp[45] numOutOfOrderArrivals:last nan
attr interpolationmode none
attr title "ping out-of-order arrivals, last"
scalar MeshLAN.host[0].pingApp[45] numLost:last 334
attr interpolationmode none
attr title "pings lost, last"
scalar MeshLAN.host[0].pingApp[45] rtt:mean 0.010689290227176
attr interpolationmode none
attr title "ping round-trip time, mean"
attr unit s
scalar MeshLAN.host[0].pingApp[46] "Pings sent" 379
scalar MeshLAN.host[0].pingApp[46] "ping loss rate (%)" 91.820580474934
scalar MeshLAN.host[0].pingApp[46] "ping out-of-order rate (%)" 0
scalar MeshLAN.host[0].pingApp[46] pingRxSeq:count 26
attr interpolationmode none
attr title "ping rx seq, count"
scalar MeshLAN.host[0].pingApp[46] pingTxSeq:count 292
attr interpolationmode none
attr title "ping tx seq, count"
scalar MeshLAN.host[0].pingApp[46] numOutOfOrderArrivals:last nan
attr interpolationmode none
attr title "ping out-of-order arrivals, last"
scalar MeshLAN.host[0].pingApp[46] numLost:last 343
attr interpolationmode none
attr title "pings lost, last"
scalar MeshLAN.host[0].pingApp[46] rtt:mean 0.0097103024602609
attr interpolationmode none
attr title "ping round-trip time, mean"
attr unit s
scalar MeshLAN.host[0].pingApp[47] "Pings sent" 380
scalar MeshLAN.host[0].pingApp[47] "ping loss rate (%)" 62.105263157895
scalar MeshLAN.host[0].pingApp[47] "ping out-of-order rate (%)" 0
scalar MeshLAN.host[0].pingApp[47] pingRxSeq:count 107
attr interpolationmode none
attr title "ping rx seq, count"
scalar MeshLAN.host[0].pingApp[47] pingTxSeq:count 286
attr interpolationmode none
attr title "ping tx seq, count"
scalar MeshLAN.host[0].pingApp[47] numOutOfOrderArrivals:last nan
attr interpolationmode none
attr title "ping out-of-order arrivals, last"
scalar MeshLAN.host[0].pingApp[47] numLost:last 235
attr interpolationmode none
attr title "pings lost, last"
scalar MeshLAN.host[0].pingApp[47] rtt:mean 0.0084863542505943
attr interpolationmode none
attr title "ping round-trip time, mean"
attr unit s
scalar MeshLAN.host[0].pingApp[48] "Pings sent" 379
scalar MeshLAN.host[0].pingApp[48] "ping loss rate (%)" 66.490765171504
scalar MeshLAN.host[0].pingApp[48] "ping out-of-order rate (%)" 0
scalar MeshLAN.host[0].pingApp[48] pingRxSeq:count 96
attr interpolationmode none
attr title "ping rx seq, count"
scalar MeshLAN.host[0].pingApp[48] pingTxSeq:count 289
attr interpolationmode none
attr title "ping tx seq, count"
scalar MeshLAN.host[0].pingApp[48] numOutOfOrderArrivals:last nan
attr interpolationmode none
attr title "ping out-of-order arrivals, last"
scalar MeshLAN.host[0].pingApp[48] numLost:last 251
attr interpolationmode none
attr title "pings lost, last"
scalar MeshLAN.host[0].pingApp[48] rtt:mean 0.0094962162296484
attr interpolationmode none
attr title "ping round-trip time, mean"
attr unit s
scalar MeshLAN.host[0].pingApp[49] "Pings sent" 376
scalar MeshLAN.host[0].pingApp[49] "ping loss rate (%)" 63.031914893617
scalar MeshLAN.host[0].pingApp[49] "ping out-of-order rate (%)" 0
scalar MeshLAN.host[0].pingApp[49] pingRxSeq:count 97
attr interpolationmode none
attr title "ping rx seq, count"
scalar MeshLAN.host[0].pingApp[49] pingTxSeq:count 281
attr interpolationmode none
attr title "ping tx seq, count"
scalar MeshLAN.host[0].pingApp[49] numOutOfOrderArrivals:last nan
attr interpolationmode none
attr title "ping out-of-order arrivals, last"
scalar MeshLAN.host[0].pingApp[49] numLost:last 235
attr interpolationmode none
attr title "pings lost, last"
scalar MeshLAN.host[0].pingApp[49] rtt:mean 0.0081695391582083
attr interpolationmode none
attr title "ping round-trip time, mean"
attr unit s
scalar MeshLAN.host[0].pingApp[50] "Pings sent" 393
scalar MeshLAN.host[0].pingApp[50] "ping loss rate (%)" 64.12213740458
scalar MeshLAN.host[0].pingApp[50] "ping out-of-order rate (%)" 0
scalar MeshLAN.host[0].pingApp[50] pingRxSeq:count 116
attr interpolationmode none
attr title "ping rx seq, count"
scalar MeshLAN.host[0].pingApp[50] pingTxSeq:count 297
attr interpolationmode none
attr title "ping tx seq, count"
scalar MeshLAN.host[0].pingApp[50] numOutOfOrderArrivals:last nan
attr interpolationmode none
attr title "ping out-of-order arrivals, last"
scalar MeshLAN.host[0].pingApp[50] numLost:last 252
attr interpolationmode none
attr title "pings lost, last"
scalar MeshLAN.host[0].pingApp[50] rtt:mean 0.0076096488878571
attr interpolationmode none
attr title "ping round-trip time, mean"
attr unit s
scalar MeshLAN.host[0].pingApp[51] "Pings sent" 378
scalar MeshLAN.host[0].pingApp[51] "ping loss rate (%)" 93.915343915344
scalar MeshLAN.host[0].pingApp[51] "ping out-of-order rate (%)" 0
scalar MeshLAN.host[0].pingApp[51] pingRxSeq:count 14
attr interpolationmode none
attr title "ping rx seq, count"
scalar MeshLAN.host[0].pingApp[51] pingTxSeq:count 281
attr interpolationmode none
attr title "ping tx seq, count"
scalar MeshLAN.host[0].pingApp[51] numOutOfOrderArrivals:last nan
attr interpolationmode none
attr title "ping out-of-order arrivals, last"
scalar MeshLAN.host[0].pingApp[51] numLost:last 333
attr interpolationmode none
attr title "pings lost, last"
scalar MeshLAN.host[0].pingApp[51] rtt:mean 0.010391271710923
attr interpolationmode none
attr title "ping round-trip time, mean"
attr unit s
scalar MeshLAN.host[0].pingApp[52] "Pings sent" 377
scalar MeshLAN.host[0].pingApp[52] "ping loss rate (%)" 91.511936339523
scalar MeshLAN.host[0].pingApp[52] "ping out-of-order rate (%)" 0
scalar MeshLAN.host[0].pingApp[52] pingRxSeq:count 22
attr interpolationmode none
attr title "ping rx seq, count"
scalar MeshLAN.host[0].pingApp[52] pingTxSeq:count 291
attr interpolationmode none
attr title "ping tx seq, count"
scalar MeshLAN.host[0].pingApp[52] numOutOfOrderArrivals:last nan
attr interpolationmode none
attr title "ping out-of-order arrivals, last"
scalar MeshLAN.host[0].pingApp[52] numLost:last 335
attr interpolationmode none
attr title "pings lost, last"
scalar MeshLAN.host[0].pingApp[52] rtt:mean 0.0093161129206111
attr interpolationmode none
attr title "ping round-trip time, mean"
attr unit s
scalar MeshLAN.host[0].pingApp[53] "Pings sent" 407
scalar MeshLAN.host[0].pingApp[53] "ping loss rate (%)" 94.103194103194
scalar MeshLAN.host[0].pingApp[53] "ping out-of-order rate (%)" 0
scalar MeshLAN.host[0].pingApp[53] pingRxSeq:count 15
attr interpolationmode none
attr title "ping rx seq, count"
scalar MeshLAN.host[0].pingApp[53] pingTxSeq:count 311
attr interpolationmode none
attr title "ping tx seq, count"
scalar MeshLAN.host[0].pingApp[53] numOutOfOrderArrivals:last nan
attr interpolationmode none
attr title "ping out-of-order arrivals, last"
scalar MeshLAN.host[0].pingApp[53] numLost:last 373
attr interpolationmode none
attr title "pings lost, last"
scalar MeshLAN.host[0].pingApp[53] rtt:mean 0.0089948703553571
attr interpolationmode none
attr title "ping round-trip time, mean"
attr unit s
scalar MeshLAN.host[0].pingApp[54] "Pings sent" 393
scalar MeshLAN.host[0].pingApp[54] "ping loss rate (%)" 92.620865139949
scalar MeshLAN.host[0].pingApp[54] "ping out-of-order rate (%)" 0
scalar MeshLAN.host[0].pingApp[54] pingRxSeq:count 26
attr interpolationmode none
attr title "ping rx seq, count"
scalar MeshLAN.host[0].pingApp[54] pingTxSeq:count 297
attr interpolationmode none
attr title "ping tx seq, count"
scalar MeshLAN.host[0].pingApp[54] numOutOfOrderArrivals:last nan
attr interpolationmode none
attr title "ping out-of-order arrivals, last"
scalar MeshLAN.host[0].pingApp[54] numLost:last 363
attr interpolationmode none
attr title "pings lost, last"
scalar MeshLAN.host[0].pingApp[54] rtt:mean 0.010138603354875
attr interpolationmode none
attr title "ping round-trip time, mean"
attr unit s
scalar MeshLAN.host[0].pingApp[55] "Pings sent" 383
scalar MeshLAN.host[0].pingApp[55] "ping loss rate (%)" 95.300261096606
scalar MeshLAN.host[0].pingApp[55] "ping out-of-order rate (%)" 0
scalar MeshLAN.host[0].pingApp[55] pingRxSeq:count 15
attr interpolationmode none
attr title "ping rx seq, count"
scalar MeshLAN.host[0].pingApp[55] pingTxSeq:count 287
attr interpolationmode none
attr title "ping tx seq, count"
scalar MeshLAN.host[0].pingApp[55] numOutOfOrderArrivals:last nan
attr interpolationmode none
attr title "ping out-of-order arrivals, last"
scalar MeshLAN.host[0].pingApp[55] numLost:last 363
attr interpolationmode none
attr title "pings lost, last"
scalar MeshLAN.host[0].pingApp[55] rtt:mean 0.0098792206945833
attr interpolationmode none
attr title "ping round-trip time, mean"
attr unit s
scalar MeshLAN.host[0].pingApp[56] "Pings sent" 382
scalar MeshLAN.host[0].pingApp[56] "ping loss rate (%)" 91.361256544503
scalar MeshLAN.host[0].pingApp[56] "ping out-of-order rate (%)" 0
scalar MeshLAN.host[0].pingApp[56] pingRxSeq:count 22
attr interpolationmode none
attr title "ping rx seq, count"
scalar MeshLAN.host[0].pingApp[56] pingTxSeq:count 284
attr interpolationmode none
attr title "ping tx seq, count"
scalar MeshLAN.host[0].pingApp[56] numOutOfOrderArrivals:last nan
attr interpolationmode none
attr title "ping out-of-order arrivals, last"
scalar MeshLAN.host[0].pingApp[56] numLost:last 347
attr interpolationmode none
attr title "pings lost, last"
scalar MeshLAN.host[0].pingApp[56] rtt:mean 0.01063902522605
attr interpolationmode none
attr title "ping round-trip time, mean"
attr unit s
scalar MeshLAN.host[0].pingApp[57] "Pings sent" 380
scalar MeshLAN.host[0].pingApp[57] "ping loss rate (%)" 94.736842105263
scalar MeshLAN.host[0].pingApp[57] "ping out-of-order rate (%)" 0
scalar MeshLAN.host[0].pingApp[57] pingRxSeq:count 12
attr interpolationmode none
attr title "ping rx seq, count"
scalar MeshLAN.host[0].pingApp[57] pingTxSeq:count 275
attr interpolationmode none
attr title "ping tx seq, count"
scalar MeshLAN.host[0].pingApp[57] numOutOfOrderArrivals:last nan
attr interpolationmode none
attr title "ping out-of-order arrivals, last"
scalar MeshLAN.host[0].pingApp[57] numLost:last 320
attr interpolationmode none
attr title "pings lost, last"
scalar MeshLAN.host[0].pingApp[57] rtt:mean 0.010614540442
attr interpolationmode none
attr title "ping round-trip time, mean"
attr unit s
scalar MeshLAN.host[0].pingApp[58] "Pings sent" 385
scalar MeshLAN.host[0].pingApp[58] "ping loss rate (%)" 61.558441558442
scalar MeshLAN.host[0].pingApp[58] "ping out-of-order rate (%)" 0
scalar MeshLAN.host[0].pingApp[58] pingRxSeq:count 116
attr interpolationmode none
attr title "ping rx seq, count"
scalar MeshLAN.host[0].pingApp[58] pingTxSeq:count 292
attr interpolationmode none
attr title "ping tx seq, count"
scalar MeshLAN.host[0].pingApp[58] numOutOfOrderArrivals:last nan
attr interpolationmode none
attr title "ping out-of-order arrivals, last"
scalar MeshLAN.host[0].pingApp[58] numLost:last 232
attr interpolationmode none
attr title "pings lost, last"
scalar MeshLAN.host[0].pingApp[58] rtt:mean 0.008539911844807
attr interpolationmode none
attr title "ping round-trip time, mean"
attr unit s
scalar MeshLAN.host[0].pingApp[59] "Pings sent" 409
scalar MeshLAN.host[0].pingApp[59] "ping loss rate (%)" 62.591687041565
scalar MeshLAN.host[0].pingApp[59] "ping out-of-order rate (%)" 0
scalar MeshLAN.host[0].pingApp[59] pingRxSeq:count 115
attr interpolationmode none
attr title "ping rx seq, count"
scalar MeshLAN.host[0].pingApp[59] pingTxSeq:count 312
attr interpolationmode none
attr title "ping tx seq, count"
scalar MeshLAN.host[0].pingApp[59] numOutOfOrderArrivals:last nan
attr interpolationmode none
attr title "ping out-of-order arrivals, last"
scalar MeshLAN.host[0].pingApp[59] numLost:last 256
attr interpolationmode none
attr title "pings lost, last"
scalar MeshLAN.host[0].pingApp[59] rtt:mean 0.0091875688523451
attr interpolationmode none
attr title "ping round-trip time, mean"
attr unit s
scalar MeshLAN.host[0].pingApp[60] "Pings sent" 396
scalar MeshLAN.host[0].pingApp[60] "ping loss rate (%)" 94.444444444444
scalar MeshLAN.host[0].pingApp[60] "ping out-of-order rate (%)" 0
scalar MeshLAN.host[0].pingApp[60] pingRxSeq:count 17
attr interpolationmode none
attr title "ping rx seq, count"
scalar MeshLAN.host[0].pingApp[60] pingTxSeq:count 296
attr interpolationmode none
attr title "ping tx seq, count"
scalar MeshLAN.host[0].pingApp[60] numOutOfOrderArrivals:last nan
attr interpolationmode none
attr title "ping out-of-order arrivals, last"
scalar MeshLAN.host[0].pingApp[60] numLost:last 346
attr interpolationmode none
attr title "pings lost, last"
scalar MeshLAN.host[0].pingApp[60] rtt:mean 0.0097081796884375
attr interpolationmode none
attr title "ping round-trip time, mean"
attr unit s
scalar MeshLAN.host[0].pingApp[61] "Pings sent" 364
scalar MeshLAN.host[0].pingApp[61] "ping loss rate (%)" 92.307692307692
scalar MeshLAN.host[0].pingApp[61] "ping out-of-order rate (%)" 0
scalar MeshLAN.host[0].pingApp[61] pingRxSeq:count 18
attr interpolationmode none
attr title "ping rx seq, count"
scalar MeshLAN.host[0].pingApp[61] pingTxSeq:count 280
attr interpolationmode none
attr title "ping tx seq, count"
scalar MeshLAN.host[0].pingApp[61] numOutOfOrderArrivals:last nan
attr interpolationmode none
attr title "ping out-of-order arrivals, last"
scalar MeshLAN.host[0].pingApp[61] numLost:last 304
attr interpolationmode none
attr title "pings lost, last"
scalar MeshLAN.host[0].pingApp[61] rtt:mean 0.0099528016864
attr interpolationmode none
attr title "ping round-trip time, mean"
attr unit s
scalar MeshLAN.host[0].pingApp[62] "Pings sent" 377
scalar MeshLAN.host[0].pingApp[62] "ping loss rate (%)" 93.103448275862
scalar MeshLAN.host[0].pingApp[62] "ping out-of-order rate (%)" 0
scalar MeshLAN.host[0].pingApp[62] pingRxSeq:count 17
attr interpolationmode none
attr title "ping rx seq, count"
scalar MeshLAN.host[0].pingApp[62] pingTxSeq:count 288
attr interpolationmode none
attr title "ping tx seq, count"
scalar MeshLAN.host[0].pingApp[62] numOutOfOrderArrivals:last nan
attr interpolationmode none
attr title "ping out-of-order arrivals, last"
scalar MeshLAN.host[0].pingApp[62] numLost:last 348
attr interpolationmode none
attr title "pings lost, last"
scalar MeshLAN.host[0].pingApp[62] rtt:mean 0.0094209426043571
attr interpolationmode none
attr title "ping round-trip time, mean"
attr unit s
scalar MeshLAN.host[0].pingApp[63] "Pings sent" 385
scalar MeshLAN.host[0].pingApp[63] "ping loss rate (%)" 92.207792207792
scalar MeshLAN.host[0].pingApp[63] "ping out-of-order rate (%)" 0
scalar MeshLAN.host[0].pingApp[63] pingRxSeq:count 21
attr interpolationmode none
attr title "ping rx seq, count"
scalar MeshLAN.host[0].pingApp[63] pingTxSeq:count 292
attr interpolationmode none
attr title "ping tx seq, count"
scalar MeshLAN.host[0].pingApp[63] numOutOfOrderArrivals:last nan
attr interpolationmode none
attr title "ping out-of-order arrivals, last"
scalar MeshLAN.host[0].pingApp[63] numLost:last 338
attr interpolationmode none
attr title "pings lost, last"
scalar MeshLAN.host[0].pingApp[63] rtt:mean 0.0098186003798333
attr interpolationmode none
attr title "ping round-trip time, mean"
attr unit s
scalar MeshLAN.host[0].pingApp[64] "Pings sent" 382
scalar MeshLAN.host[0].pingApp[64] "ping loss rate (%)" 93.455497382199
scalar MeshLAN.host[0].pingApp[64] "ping out-of-order rate (%)" 0
scalar MeshLAN.host[0].pingApp[64] pingRxSeq:count 18
attr interpolationmode none
attr title "ping rx seq, count"
scalar MeshLAN.host[0].pingApp[64] pingTxSeq:count 283
attr interpolationmode none
attr title "ping tx seq, count"
scalar MeshLAN.host[0].pingApp[64] numOutOfOrderArrivals:last nan
attr interpolationmode none
attr title "ping out-of-order arrivals, last"
scalar MeshLAN.host[0].pingApp[64] numLost:last 355
attr interpolationmode none
attr title "pings lost, last"
scalar MeshLAN.host[0].pingApp[64] rtt:mean 0.010755943218133
attr interpolationmode none
attr title "ping round-trip time, mean"
attr unit s
scalar MeshLAN.host[0].pingApp[65] "Pings sent" 375
scalar MeshLAN.host[0].pingApp[65] "ping loss rate (%)" 65.866666666667
scalar MeshLAN.host[0].pingApp[65] "ping out-of-order rate (%)" 0
scalar MeshLAN.host[0].pingApp[65] pingRxSeq:count 91
attr interpolationmode none
attr title "ping rx seq, count"
scalar MeshLAN.host[0].pingApp[65] pingTxSeq:count 279
attr interpolationmode none
attr title "ping tx seq, count"
scalar MeshLAN.host[0].pingApp[65] numOutOfOrderArrivals:last nan
attr interpolationmode none
attr title "ping out-of-order arrivals, last"
scalar MeshLAN.host[0].pingApp[65] numLost:last 247
attr interpolationmode none
attr title "pings lost, last"
scalar MeshLAN.host[0].pingApp[65] rtt:mean 0.0092514638489213
attr interpolationmode none
attr title "ping round-trip time, mean"
attr unit s
scalar MeshLAN.host[0].pingApp[66] "Pings sent" 388
scalar MeshLAN.host[0].pingApp[66] "ping loss rate (%)" 91.752577319588
scalar MeshLAN.host[0].pingApp[66] "ping out-of-order rate (%)" 0
scalar MeshLAN.host[0].pingApp[66] pingRxSeq:count 25
attr interpolationmode none
attr title "ping rx seq, count"
scalar MeshLAN.host[0].pingApp[66] pingTxSeq:count 292
attr interpolationmode none
attr title "ping tx seq, count"
scalar MeshLAN.host[0].pingApp[66] numOutOfOrderArrivals:last nan
attr interpolationmode none
attr title "ping out-of-order arrivals, last"
scalar MeshLAN.host[0].pingApp[66] numLost:last 355
attr interpolationmode none
attr title "pings lost, last"
scalar MeshLAN.host[0].pingApp[66] rtt:mean 0.010586492836913
attr interpolationmode none
attr title "ping round-trip time, mean"
attr unit s
scalar MeshLAN.host[0].pingApp[67] "Pings sent" 394
scalar MeshLAN.host[0].pingApp[67] "ping loss rate (%)" 60.659898477157
scalar MeshLAN.host[0].pingApp[67] "ping out-of-order rate (%)" 0
scalar MeshLAN.host[0].pingApp[67] pingRxSeq:count 118
attr interpolationmode none
attr title "ping rx seq, count"
scalar MeshLAN.host[0].pingApp[67] pingTxSeq:count 298
attr interpolationmode none
attr title "ping tx seq, count"
scalar MeshLAN.host[0].pingApp[67] numOutOfOrderArrivals:last nan
attr interpolationmode none
attr title "ping out-of-order arrivals, last"
scalar MeshLAN.host[0].pingApp[67] numLost:last 236
attr interpolationmode none
attr title "pings lost, last"
scalar MeshLAN.host[0].pingApp[67] rtt:mean 0.0098236446636239
attr interpolationmode none
attr title "ping round-trip time, mean"
attr unit s
scalar MeshLAN.host[0].pingApp[68] "Pings sent" 380
scalar MeshLAN.host[0].pingApp[68] "ping loss rate (%)" 65.526315789474
scalar MeshLAN.host[0].pingApp[68] "ping out-of-order rate (%)" 0
scalar MeshLAN.host[0].pingApp[68] pingRxSeq:count 101
attr interpolationmode none
attr title "ping rx seq, count"
scalar MeshLAN.host[0].pingApp[68] pingTxSeq:count 291
attr interpolationmode none
attr title "ping tx seq, count"
scalar MeshLAN.host[0].pingApp[68] numOutOfOrderArrivals:last nan
attr interpolationmode none
attr title "ping out-of-order arrivals, last"
scalar MeshLAN.host[0].pingApp[68] numLost:last 249
attr interpolationmode none
attr title "pings lost, last"
scalar MeshLAN.host[0].pingApp[68] rtt:mean 0.0095421154173673
attr interpolationmode none
attr title "ping round-trip time, mean"
attr unit s
scalar MeshLAN.host[0].pingApp[69] "Pings sent" 387
scalar MeshLAN.host[0].pingApp[69] "ping loss rate (%)" 91.731266149871
scalar MeshLAN.host[0].pingApp[69] "ping out-of-order rate (%)" 0
scalar MeshLAN.host[0].pingApp[69] pingRxSeq:count 24
attr interpolationmode none
attr title "ping rx seq, count"
scalar MeshLAN.host[0].pingApp[69] pingTxSeq:count 296
attr interpolationmode none
attr title "ping tx seq, count"
scalar MeshLAN.host[0].pingApp[69] numOutOfOrderArrivals:last nan
attr interpolationmode none
attr title "ping out-of-order arrivals, last"
scalar MeshLAN.host[0].pingApp[69] numLost:last 339
attr interpolationmode none
attr title "pings lost, last"
scalar MeshLAN.host[0].pingApp[69] rtt:mean 0.009877097915619
attr interpolationmode none
attr title "ping round-trip time, mean"
attr unit s
scalar MeshLAN.host[0].pingApp[70] "Pings sent" 384
scalar MeshLAN.host[0].pingApp[70] "ping loss rate (%)" 92.447916666667
scalar MeshLAN.host[0].pingApp[70] "ping out-of-order rate (%)" 0
scalar MeshLAN.host[0].pingApp[70] pingRxSeq:count 17
attr interpolationmode none
attr title "ping rx seq, count"
scalar MeshLAN.host[0].pingApp[70] pingTxSeq:count 285
attr interpolationmode none
attr title "ping tx seq, count"
scalar MeshLAN.host[0].pingApp[70] numOutOfOrderArrivals:last nan
attr interpolationmode none
attr title "ping out-of-order arrivals, last"
scalar MeshLAN.host[0].pingApp[70] numLost:last 355
attr interpolationmode none
attr title "pings lost, last"
scalar MeshLAN.host[0].pingApp[70] rtt:mean 0.010073297748071
attr interpolationmode none
attr title "ping round-trip time, mean"
attr unit s
scalar MeshLAN.host[0].pingApp[71] "Pings sent" 396
scalar MeshLAN.host[0].pingApp[71] "ping loss rate (%)" 92.676767676768
scalar MeshLAN.host[0].pingApp[71] "ping out-of-order rate (%)" 0
scalar MeshLAN.host[0].pingApp[71] pingRxSeq:count 20
attr interpolationmode none
attr title "ping rx seq, count"
scalar MeshLAN.host[0].pingApp[71] pingTxSeq:count 296
attr interpolationmode none
attr title "ping tx seq, count"
scalar MeshLAN.host[0].pingApp[71] numOutOfOrderArrivals:last nan
attr interpolationmode none
attr title "ping out-of-order arrivals, last"
scalar MeshLAN.host[0].pingApp[71] numLost:last 362
attr interpolationmode none
attr title "pings lost, last"
scalar MeshLAN.host[0].pingApp[71] rtt:mean 0.010701623110312
attr interpolationmode none
attr title "ping round-trip time, mean"
attr unit s
scalar MeshLAN.host[0].pingApp[72] "Pings sent" 399
scalar MeshLAN.host[0].pingApp[72] "ping loss rate (%)" 59.147869674185
scalar MeshLAN.host[0].pingApp[72] "ping out-of-order rate (%)" 0
scalar MeshLAN.host[0].pingApp[72] pingRxSeq:count 110
attr interpolationmode none
attr title "ping rx seq, count"
scalar MeshLAN.host[0].pingApp[72] pingTxSeq:count 300
attr interpolationmode none
attr title "ping tx seq, count"
scalar MeshLAN.host[0].pingApp[72] numOutOfOrderArrivals:last nan
attr interpolationmode none
attr title "ping out-of-order arrivals, last"
scalar MeshLAN.host[0].pingApp[72] numLost:last 219
attr interpolationmode none
attr title "pings lost, last"
scalar MeshLAN.host[0].pingApp[72] rtt:mean 0.0095462711265688
attr interpolationmode none
attr title "ping round-trip time, mean"
attr unit s
scalar MeshLAN.host[0].pingApp[73] "Pings sent" 375
scalar MeshLAN.host[0].pingApp[73] "ping loss rate (%)" 65.333333333333
scalar MeshLAN.host[0].pingApp[73] "ping out-of-order rate (%)" 0
scalar MeshLAN.host[0].pingApp[73] pingRxSeq:count 99
attr interpolationmode none
attr title "ping rx seq, count"
scalar MeshLAN.host[0].pingApp[73] pingTxSeq:count 287
attr interpolationmode none
attr title "ping tx seq, count"
scalar MeshLAN.host[0].pingApp[73] numOutOfOrderArrivals:last nan
attr interpolationmode none
attr title "ping out-of-order arrivals, last"
scalar MeshLAN.host[0].pingApp[73] numLost:last 242
attr interpolationmode none
attr title "pings lost, last"
scalar MeshLAN.host[0].pingApp[73] rtt:mean 0.0093872373835556
attr interpolationmode none
attr title "ping round-trip time, mean"
attr unit s
scalar MeshLAN.host[0].pingApp[74] "Pings sent" 391
scalar MeshLAN.host[0].pingApp[74] "ping loss rate (%)" 95.140664961637
scalar MeshLAN.host[0].pingApp[74] "ping out-of-order rate (%)" 0
scalar MeshLAN.host[0].pingApp[74] pingRxSeq:count 16
attr interpolationmode none
attr title "ping rx seq, count"
scalar MeshLAN.host[0].pingApp[74] pingTxSeq:count 293
attr interpolationmode none
attr title "ping tx seq, count"
scalar MeshLAN.host[0].pingApp[74] numOutOfOrderArrivals:last nan
attr interpolationmode none
attr title "ping out-of-order arrivals, last"
scalar MeshLAN.host[0].pingApp[74] numLost:last 360
attr interpolationmode none
attr title "pings lost, last"
scalar MeshLAN.host[0].pingApp[74] rtt:mean 0.0096680530406667
attr interpolationmode none
attr title "ping round-trip time, mean"
attr unit s
scalar MeshLAN.host[0].pingApp[75] "Pings sent" 379
scalar MeshLAN.host[0].pingApp[75] "ping loss rate (%)" 61.741424802111
scalar MeshLAN.host[0].pingApp[75] "ping out-of-order rate (%)" 0
scalar MeshLAN.host[0].pingApp[75] pingRxSeq:count 112
attr interpolationmode none
attr title "ping rx seq, count"
scalar MeshLAN.host[0].pingApp[75] pingTxSeq:count 287
attr interpolationmode none
attr title "ping tx seq, count"
scalar MeshLAN.host[0].pingApp[75] numOutOfOrderArrivals:last nan
attr interpolationmode none
attr title "ping out-of-order arrivals, last"
scalar MeshLAN.host[0].pingApp[75] numLost:last 233
attr interpolationmode none
attr title "pings lost, last"
scalar MeshLAN.host[0].pingApp[75] rtt:mean 0.0092130175684587
attr interpolationmode none
attr title "ping round-trip time, mean"
attr unit s
scalar MeshLAN.host[0].pingApp[76] "Pings sent" 385
scalar MeshLAN.host[0].pingApp[76] "ping loss rate (%)" 92.467532467532
scalar MeshLAN.host[0].pingApp[76] "ping out-of-order rate (%)" 0
scalar MeshLAN.host[0].pingApp[76] pingRxSeq:count 21
attr interpolationmode none
attr title "ping rx seq, count"
scalar MeshLAN.host[0].pingApp[76] pingTxSeq:count 288
attr interpolationmode none
attr title "ping tx seq, count"
scalar MeshLAN.host[0].pingApp[76] numOutOfOrderArrivals:last nan
attr interpolationmode none
attr title "ping out-of-order arrivals, last"
scalar MeshLAN.host[0].pingApp[76] numLost:last 341
attr interpolationmode none
attr title "pings lost, last"
scalar MeshLAN.host[0].pingApp[76] rtt:mean 0.0097171739462353
attr interpolationmode none
attr title "ping round-trip time, mean"
attr unit s
scalar MeshLAN.host[0].pingApp[77] "Pings sent" 368
scalar MeshLAN.host[0].pingApp[77] "ping loss rate (%)" 61.684782608696
scalar MeshLAN.host[0].pingApp[77] "ping out-of-order rate (%)" 0
scalar MeshLAN.host[0].pingApp[77] pingRxSeq:count 103
attr interpolationmode none
attr title "ping rx seq, count"
scalar MeshLAN.host[0].pingApp[77] pingTxSeq:count 281
attr interpolationmode none
attr title "ping tx seq, count"
scalar MeshLAN.host[0].pingApp[77] numOutOfOrderArrivals:last nan
attr interpolationmode none
attr title "ping out-of-order arrivals, last"
scalar MeshLAN.host[0].pingApp[77] numLost:last 220
attr interpolationmode none
attr title "pings lost, last"
scalar MeshLAN.host[0].pingApp[77] rtt:mean 0.009803768421233
attr interpolationmode none
attr title "ping round-trip time, mean"
attr unit s
scalar MeshLAN.host[0].pingApp[78] "Pings sent" 398
scalar MeshLAN.host[0].pingApp[78] "ping loss rate (%)" 60.050251256281
scalar MeshLAN.host[0].pingApp[78] "ping out-of-order rate (%)" 0
scalar MeshLAN.host[0].pingApp[78] pingRxSeq:count 116
attr interpolationmode none
attr title "ping rx seq, count"
scalar MeshLAN.host[0].pingApp[78] pingTxSeq:count 303
attr interpolationmode none
attr title "ping tx seq, count"
scalar MeshLAN.host[0].pingApp[78] numOutOfOrderArrivals:last nan
attr interpolationmode none
attr title "ping out-of-order arrivals, last"
scalar MeshLAN.host[0].pingApp[78] numLost:last 239
attr interpolationmode none
attr title "pings lost, last"
scalar MeshLAN.host[0].pingApp[78] rtt:mean 0.0081550628110266
attr interpolationmode none
attr title "ping round-trip time, mean"
attr unit s
scalar MeshLAN.host[0].pingApp[79] "Pings sent" 374
scalar MeshLAN.host[0].pingApp[79] "ping loss rate (%)" 63.368983957219
scalar MeshLAN.host[0].pingApp[79] "ping out-of-order rate (%)" 0.26737967914439
scalar MeshLAN.host[0].pingApp[79] pingRxSeq:count 103
attr interpolationmode none
attr title "ping rx seq, count"
scalar MeshLAN.host[0].pingApp[79] pingTxSeq:count 291
attr interpolationmode none
attr title "ping tx seq, count"
scalar MeshLAN.host[0].pingApp[79] numOutOfOrderArrivals:last 1
attr interpolationmode none
attr title "ping out-of-order arrivals, last"
scalar MeshLAN.host[0].pingApp[79] numLost:last 237
attr interpolationmode none
attr title "pings lost, last"
scalar MeshLAN.host[0].pingApp[79] rtt:mean 0.009621379604697
attr interpolationmode none
attr title "ping round-trip time, mean"
attr unit s
scalar MeshLAN.host[0].pingApp[80] "Pings sent" 409
scalar MeshLAN.host[0].pingApp[80] "ping loss rate (%)" 63.569682151589
scalar MeshLAN.host[0].pingApp[80] "ping out-of-order rate (%)" 0
scalar MeshLAN.host[0].pingApp[80] pingRxSeq:count 120
attr interpolationmode none
attr title "ping rx seq, count"
scalar MeshLAN.host[0].pingApp[80] pingTxSeq:count 303
attr interpolationmode none
attr title "ping tx seq, count"
scalar MeshLAN.host[0].pingApp[80] numOutOfOrderArrivals:last nan
attr interpolationmode none
attr title "ping out-of-order arrivals, last"
scalar MeshLAN.host[0].pingApp[80] numLost:last 257
attr interpolationmode none
attr title "pings lost, last"
scalar MeshLAN.host[0].pingApp[80] rtt:mean 0.0084230028307521
attr interpolationmode none
attr title "ping round-trip time, mean"
attr unit s
scalar MeshLAN.host[0].pingApp[81] "Pings sent" 398
scalar MeshLAN.host[0].pingApp[81] "ping loss rate (%)" 92.964824120603
scalar MeshLAN.host[0].pingApp[81] "ping out-of-order rate (%)" 0
scalar MeshLAN.host[0].pingApp[81] pingRxSeq:count 22
attr interpolationmode none
attr title "ping rx seq, count"
scalar MeshLAN.host[0].pingApp[81] pingTxSeq:count 305
attr interpolationmode none
attr title "ping tx seq, count"
scalar MeshLAN.host[0].pingApp[81] numOutOfOrderArrivals:last nan
attr interpolationmode none
attr title "ping out-of-order arrivals, last"
scalar MeshLAN.host[0].pingApp[81] numLost:last 337
attr interpolationmode none
attr title "pings lost, last"
scalar MeshLAN.host[0].pingApp[81] rtt:mean 0.011070181413778
attr interpolationmode none
attr title "ping round-trip time, mean"
attr unit s
scalar MeshLAN.host[0].pingApp[82] "Pings sent" 380
scalar MeshLAN.host[0].pingApp[82] "ping loss rate (%)" 93.421052631579
scalar MeshLAN.host[0].pingApp[82] "ping out-of-order rate (%)" 0
scalar MeshLAN.host[0].pingApp[82] pingRxSeq:count 18
attr interpolationmode none
attr title "ping rx seq, count"
scalar MeshLAN.host[0].pingApp[82] pingTxSeq:count 288
attr interpolationmode none
attr title "ping tx seq, count"
scalar MeshLAN.host[0].pingApp[82] numOutOfOrderArrivals:last nan
attr interpolationmode none
attr title "ping out-of-order arrivals, last"
scalar MeshLAN.host[0].pingApp[82] numLost:last 322
attr interpolationmode none
attr title "pings lost, last"
scalar MeshLAN.host[0].pingApp[82] rtt:mean 0.0096882887672
attr interpolationmode none
attr title "ping round-trip time, mean"
attr unit s
scalar MeshLAN.host[0].pingApp[83] "Pings sent" 390
scalar MeshLAN.host[0].pingApp[83] "ping loss rate (%)" 92.820512820513
scalar MeshLAN.host[0].pingApp[83] "ping out-of-order rate (%)" 0
scalar MeshLAN.host[0].pingApp[83] pingRxSeq:count 21
attr interpolationmode none
attr title "ping rx seq, count"
scalar MeshLAN.host[0].pingApp[83] pingTxSeq:count 287
attr interpolationmode none
attr title "ping tx seq, count"
scalar MeshLAN.host[0].pingApp[83] numOutOfOrderArrivals:last nan
attr interpolationmode none
attr title "ping out-of-order arrivals, last"
scalar MeshLAN.host[0].pingApp[83] numLost:last 316
attr interpolationmode none
attr title "pings lost, last"
scalar MeshLAN.host[0].pingApp[83] rtt:mean 0.009279754777875
attr interpolationmode none
attr title "ping round-trip time, mean"
attr unit s
scalar MeshLAN.host[0].pingApp[84] "Pings sent" 403
scalar MeshLAN.host[0].pingApp[84] "ping loss rate (%)" 66.004962779156
scalar MeshLAN.host[0].pingApp[84] "ping out-of-order rate (%)" 0
scalar MeshLAN.host[0].pingApp[84] pingRxSeq:count 111
attr interpolationmode none
attr title "ping rx seq, count"
scalar MeshLAN.host[0].pingApp[84] pingTxSeq:count 309
attr interpolationmode none
attr title "ping tx seq, count"
scalar MeshLAN.host[0].pingApp[84] numOutOfOrderArrivals:last nan
attr interpolationmode none
attr title "ping out-of-order arrivals, last"
scalar MeshLAN.host[0].pingApp[84] numLost:last 264
attr interpolationmode none
attr title "pings lost, last"
scalar MeshLAN.host[0].pingApp[84] rtt:mean 0.009486692489973
attr interpolationmode none
attr title "ping round-trip time, mean"
attr unit s
scalar MeshLAN.host[0].pingApp[85] "Pings sent" 385
scalar MeshLAN.host[0].pingApp[85] "ping loss rate (%)" 90.649350649351
scalar MeshLAN.host[0].pingApp[85] "ping out-of-order rate (%)" 0
scalar MeshLAN.host[0].pingApp[85] pingRxSeq:count 26
attr interpolationmode none
attr title "ping rx seq, count"
scalar MeshLAN.host[0].pingApp[85] pingTxSeq:count 297
attr interpolationmode none
attr title "ping tx seq, count"
scalar MeshLAN.host[0].pingApp[85] numOutOfOrderArrivals:last nan
attr interpolationmode none
attr title "ping out-of-order arrivals, last"
scalar MeshLAN.host[0].pingApp[85] numLost:last 347
attr interpolationmode none
attr title "pings lost, last"
[...]
scalar MeshLAN.router[9].eth[7].mac "simulated time" 20
scalar MeshLAN.router[9].eth[7].mac full-duplex 1
scalar MeshLAN.router[9].eth[7].mac "frames/sec sent" 209.55
scalar MeshLAN.router[9].eth[7].mac "frames/sec rcvd" 207.15
scalar MeshLAN.router[9].eth[7].mac "bits/sec sent" 1358095.6
scalar MeshLAN.router[9].eth[7].mac "bits/sec rcvd" 1339162
scalar MeshLAN.router[9].eth[7].mac "rx channel idle (%)" 86.475804
scalar MeshLAN.router[9].eth[7].mac "rx channel utilization (%)" 13.524196
scalar MeshLAN.router[9].eth[7].mac rxPkFromHL:count 3166
attr interpolationmode none
attr source rxPkFromHL
attr title "packet bytes from higher layer, count"
scalar MeshLAN.router[9].eth[7].mac rxPkFromHL:sum(packetBytes) 2569139
attr interpolationmode none
attr source rxPkFromHL
attr title "packet bytes from higher layer, sum(packetBytes)"
scalar MeshLAN.router[9].eth[7].mac rxPausePkUnits:count 0
attr interpolationmode none
attr title "pause units received, count"
scalar MeshLAN.router[9].eth[7].mac rxPausePkUnits:sum 0
attr interpolationmode none
attr title "pause units received, sum"
scalar MeshLAN.router[9].eth[7].mac txPausePkUnits:count 0
attr interpolationmode none
attr title "pause units sent, count"
scalar MeshLAN.router[9].eth[7].mac txPausePkUnits:sum 0
attr interpolationmode none
attr title "pause units sent, sum"
scalar MeshLAN.router[9].eth[7].mac txPk:count 3166
attr interpolationmode none
attr source txPk
attr title "packets transmitted, count"
scalar MeshLAN.router[9].eth[7].mac txPk:sum(packetBytes) 2569139
attr interpolationmode none
attr source txPk
attr title "packets transmitted, sum(packetBytes)"
scalar MeshLAN.router[9].eth[7].mac droppedPkNotForUs:count 0
attr interpolationmode none
attr source dropPkNotForUs
attr title "packets dropped/not for us, count"
scalar MeshLAN.router[9].eth[7].mac droppedPkNotForUs:sum(packetBytes) 0
attr interpolationmode none
attr source dropPkNotForUs
attr title "packets dropped/not for us, sum(packetBytes)"
scalar MeshLAN.router[9].eth[7].mac droppedPkBitError:count 0
attr interpolationmode none
attr source dropPkBitError
attr title "packets dropped/bit error, count"
scalar MeshLAN.router[9].eth[7].mac droppedPkBitError:sum(packetBytes) 0
attr interpolationmode none
attr source dropPkBitError
attr title "packets dropped/bit error, sum(packetBytes)"
scalar MeshLAN.router[9].eth[7].mac droppedPkIfaceDown:count 0
attr interpolationmode none
attr source dropPkIfaceDown
attr title "packets dropped/interface down, count"
scalar MeshLAN.router[9].eth[7].mac droppedPkIfaceDown:sum(packetBytes) 0
attr interpolationmode none
attr source dropPkIfaceDown
attr title "packets dropped/interface down, sum(packetBytes)"
scalar MeshLAN.router[9].eth[7].mac rxPkOk:count 3115
attr interpolationmode none
attr source rxPkOk
attr title "packets received OK, count"
scalar MeshLAN.router[9].eth[7].mac rxPkOk:sum(packetBytes) 2521964
attr interpolationmode none
attr source rxPkOk
attr title "packets received OK, sum(packetBytes)"
scalar MeshLAN.router[9].eth[7].mac passedUpPk:count 3115
attr interpolationmode none
attr source packetSentToUpper
attr title "packets passed to higher layer, count"
scalar MeshLAN.router[9].eth[7].mac passedUpPk:sum(packetBytes) 2521964
attr interpolationmode none
attr source packetSentToUpper
attr title "packets passed to higher layer, sum(packetBytes)"
scalar MeshLAN.router[9].eth[7].encap pauseSent:count 0
attr title "pause sent, count"
scalar MeshLAN.router[9].eth[7].encap pauseSent:sum 0
attr title "pause sent, sum"
scalar MeshLAN.router[9].eth[7].encap decapPk:count 3115
attr interpolationmode none
attr source decapPk
attr title "packets decapsulated, count"
scalar MeshLAN.router[9].eth[7].encap decapPk:sum(packetBytes) 2465830
attr interpolationmode none
attr source decapPk
attr title "packets decapsulated, sum(packetBytes)"
scalar MeshLAN.router[9].eth[7].encap encapPk:count 3166
attr interpolationmode none
attr source encapPk
attr title "packets encapsulated, count"
scalar MeshLAN.router[9].eth[7].encap encapPk:sum(packetBytes) 2512105
attr interpolationmode none
attr source encapPk
attr title "packets encapsulated, sum(packetBytes)"
scalar MeshLAN.router[9].eth[8].queue.pauseQueue queueLength:max nan
attr interpolationmode sample-hold
attr title "queue length, max"
scalar MeshLAN.router[9].eth[8].queue.pauseQueue queueLength:timeavg nan
attr interpolationmode sample-hold
attr title "queue length, timeavg"
statistic MeshLAN.router[9].eth[8].queue.pauseQueue queueingTime:histogram
field count 0
field mean nan
field stddev nan
field min nan
field max nan
field sum 0
field sqrsum 0
attr interpolationmode none
attr title "queueing time, histogram"
bin	-inf	0
bin	-0.5	0
bin	-0.46666666666667	0
bin	-0.43333333333333	0
bin	-0.4	0
bin	-0.36666666666667	0
bin	-0.33333333333333	0
bin	-0.3	0
bin	-0.26666666666667	0
bin	-0.23333333333333	0
bin	-0.2	0
bin	-0.16666666666667	0
bin	-0.13333333333333	0
bin	-0.1	0
bin	-0.066666666666667	0
bin	-0.033333333333333	0
bin	0	0
bin	0.033333333333333	0
bin	0.066666666666667	0
bin	0.1	0
bin	0.13333333333333	0
bin	0.16666666666667	0
bin	0.2	0
bin	0.23333333333333	0
bin	0.26666666666667	0
bin	0.3	0
bin	0.33333333333333	0
bin	0.36666666666667	0
bin	0.4	0
bin	0.43333333333333	0
bin	0.46666666666667	0
bin	0.5	0
scalar MeshLAN.router[9].eth[8].queue.pauseQueue dropPk:count 0
attr interpolationmode none
attr source dropPkByQueue
attr title "dropped packets, count"
scalar MeshLAN.router[9].eth[8].queue.pauseQueue dropPk:sum(packetBytes) 0
attr interpolationmode none
attr source dropPkByQueue
attr title "dropped packets, sum(packetBytes)"
scalar MeshLAN.router[9].eth[8].queue.pauseQueue rcvdPk:count 0
attr interpolationmode none
attr title "received packets, count"
scalar MeshLAN.router[9].eth[8].queue.pauseQueue rcvdPk:sum(packetBytes) 0
attr interpolationmode none
attr title "received packets, sum(packetBytes)"
scalar MeshLAN.router[9].eth[8].queue.dataQueue queueLength:max 3
attr interpolationmode sample-hold
attr title "queue length, max"
scalar MeshLAN.router[9].eth[8].queue.dataQueue queueLength:timeavg 0.020514461254083
attr interpolationmode sample-hold
attr title "queue length, timeavg"
statistic MeshLAN.router[9].eth[8].queue.dataQueue queueingTime:histogram
field count 3225
field mean 9.5371739091473e-005
field stddev 0.00024309970446113
field min 0
field max 0.0018472
field sum 0.30757385857
field sqrsum 0.0002198640851714
attr interpolationmode none
attr title "queueing time, histogram"
bin	-inf	0
bin	-0.0006875450275	0
bin	-0.00059587235716667	0
bin	-0.00050419968683333	0
bin	-0.0004125270165	0
bin	-0.00032085434616667	0
bin	-0.00022918167583333	0
bin	-0.0001375090055	0
bin	-4.5836335166667e-005	2680
bin	4.5836335166667e-005	44
bin	0.0001375090055	36
bin	0.00022918167583333	57
bin	0.00032085434616667	41
bin	0.0004125270165	55
bin	0.00050419968683333	67
bin	0.00059587235716667	43
bin	0.0006875450275	39
bin	0.00077921769783333	130
bin	0.00087089036816667	7
bin	0.0009625630385	3
bin	0.0010542357088333	10
bin	0.0011459083791667	3
bin	0.0012375810495	3
bin	0.0013292537198333	4
bin	0.0014209263901667	2
bin	0.0015125990605	0
bin	0.0016042717308333	0
bin	0.0016959444011667	0
bin	0.0017876170715	1
bin	0.0018792897418333	0
bin	0.0019709624121667	0
bin	0.0020626350825	0
scalar MeshLAN.router[9].eth[8].queue.dataQueue dropPk:count 0
attr interpolationmode none
attr source dropPkByQueue
attr title "dropped packets, count"
scalar MeshLAN.router[9].eth[8].queue.dataQueue dropPk:sum(packetBytes) 0
attr interpolationmode none
attr source dropPkByQueue
attr title "dropped packets, sum(packetBytes)"
scalar MeshLAN.router[9].eth[8].queue.dataQueue rcvdPk:count 3225
attr interpolationmode none
attr title "received packets, count"
scalar MeshLAN.router[9].eth[8].queue.dataQueue rcvdPk:sum(packetBytes) 2640684
attr interpolationmode none
attr title "received packets, sum(packetBytes)"
scalar MeshLAN.router[9].eth[8].mac "simulated time" 20
scalar MeshLAN.router[9].eth[8].mac full-duplex 1
scalar MeshLAN.router[9].eth[8].mac "frames/sec sent" 218.3
scalar MeshLAN.router[9].eth[8].mac "frames/sec rcvd" 207.45
scalar MeshLAN.router[9].eth[8].mac "bits/sec sent" 1424493.2
scalar MeshLAN.router[9].eth[8].mac "bits/sec rcvd" 1331452
scalar MeshLAN.router[9].eth[8].mac "rx channel idle (%)" 86.552712
scalar MeshLAN.router[9].eth[8].mac "rx channel utilization (%)" 13.447288
scalar MeshLAN.router[9].eth[8].mac rxPkFromHL:count 3225
attr interpolationmode none
attr source rxPkFromHL
attr title "packet bytes from higher layer, count"
scalar MeshLAN.router[9].eth[8].mac rxPkFromHL:sum(packetBytes) 2640684
attr interpolationmode none
attr source rxPkFromHL
attr title "packet bytes from higher layer, sum(packetBytes)"
scalar MeshLAN.router[9].eth[8].mac rxPausePkUnits:count 0
attr interpolationmode none
attr title "pause units received, count"
scalar MeshLAN.router[9].eth[8].mac rxPausePkUnits:sum 0
attr interpolationmode none
attr title "pause units received, sum"
scalar MeshLAN.router[9].eth[8].mac txPausePkUnits:count 0
attr interpolationmode none
attr title "pause units sent, count"
scalar MeshLAN.router[9].eth[8].mac txPausePkUnits:sum 0
attr interpolationmode none
attr title "pause units sent, sum"
scalar MeshLAN.router[9].eth[8].mac txPk:count 3225
attr interpolationmode none
attr source txPk
attr title "packets transmitted, count"
scalar MeshLAN.router[9].eth[8].mac txPk:sum(packetBytes) 2640684
attr interpolationmode none
attr source txPk
attr title "packets transmitted, sum(packetBytes)"
scalar MeshLAN.router[9].eth[8].mac droppedPkNotForUs:count 0
attr interpolationmode none
attr source dropPkNotForUs
attr title "packets dropped/not for us, count"
scalar MeshLAN.router[9].eth[8].mac droppedPkNotForUs:sum(packetBytes) 0
attr interpolationmode none
attr source dropPkNotForUs
attr title "packets dropped/not for us, sum(packetBytes)"
scalar MeshLAN.router[9].eth[8].mac droppedPkBitError:count 0
attr interpolationmode none
attr source dropPkBitError
attr title "packets dropped/bit error, count"
scalar MeshLAN.router[9].eth[8].mac droppedPkBitError:sum(packetBytes) 0
attr interpolationmode none
attr source dropPkBitError
attr title "packets dropped/bit error, sum(packetBytes)"
scalar MeshLAN.router[9].eth[8].mac droppedPkIfaceDown:count 0
attr interpolationmode none
attr source dropPkIfaceDown
attr title "packets dropped/interface down, count"
scalar MeshLAN.router[9].eth[8].mac droppedPkIfaceDown:sum(packetBytes) 0
attr interpolationmode none
attr source dropPkIfaceDown
attr title "packets dropped/interface down, sum(packetBytes)"
scalar MeshLAN.router[9].eth[8].mac rxPkOk:count 3067
attr interpolationmode none
attr source rxPkOk
attr title "packets received OK, count"
scalar MeshLAN.router[9].eth[8].mac rxPkOk:sum(packetBytes) 2471154
attr interpolationmode none
attr source rxPkOk
attr title "packets received OK, sum(packetBytes)"
scalar MeshLAN.router[9].eth[8].mac passedUpPk:count 3067
attr interpolationmode none
attr source packetSentToUpper
attr title "packets passed to higher layer, count"
scalar MeshLAN.router[9].eth[8].mac passedUpPk:sum(packetBytes) 2471154
attr interpolationmode none
attr source packetSentToUpper
attr title "packets passed to higher layer, sum(packetBytes)"
scalar MeshLAN.router[9].eth[8].encap pauseSent:count 0
attr title "pause sent, count"
scalar MeshLAN.router[9].eth[8].encap pauseSent:sum 0
attr title "pause sent, sum"
scalar MeshLAN.router[9].eth[8].encap decapPk:count 3067
attr interpolationmode none
attr source decapPk
attr title "packets decapsulated, count"
scalar MeshLAN.router[9].eth[8].encap decapPk:sum(packetBytes) 2415912
attr interpolationmode none
attr source decapPk
attr title "packets decapsulated, sum(packetBytes)"
scalar MeshLAN.router[9].eth[8].encap encapPk:count 3225
attr interpolationmode none
attr source encapPk
attr title "packets encapsulated, count"
scalar MeshLAN.router[9].eth[8].encap encapPk:sum(packetBytes) 2582598
attr interpolationmode none
attr source encapPk
attr title "packets encapsulated, sum(packetBytes)"
scalar MeshLAN.router[9].eth[9].queue.pauseQueue queueLength:max nan
attr interpolationmode sample-hold
attr title "queue length, max"
scalar MeshLAN.router[9].eth[9].queue.pauseQueue queueLength:timeavg nan
attr interpolationmode sample-hold
attr title "queue length, timeavg"
statistic MeshLAN.router[9].eth[9].queue.pauseQueue queueingTime:histogram
field count 0
field mean nan
field stddev nan
field min nan
field max nan
field sum 0
field sqrsum 0
attr interpolationmode none
attr title "queueing time, histogram"
bin	-inf	0
bin	-0.5	0
bin	-0.46666666666667	0
bin	-0.43333333333333	0
bin	-0.4	0
bin	-0.36666666666667	0
bin	-0.33333333333333	0
bin	-0.3	0
bin	-0.26666666666667	0
bin	-0.23333333333333	0
bin	-0.2	0
bin	-0.16666666666667	0
bin	-0.13333333333333	0
bin	-0.1	0
bin	-0.066666666666667	0
bin	-0.033333333333333	0
bin	0	0
bin	0.033333333333333	0
bin	0.066666666666667	0
bin	0.1	0
bin	0.13333333333333	0
bin	0.16666666666667	0
bin	0.2	0
bin	0.23333333333333	0
bin	0.26666666666667	0
bin	0.3	0
bin	0.33333333333333	0
bin	0.36666666666667	0
bin	0.4	0
bin	0.43333333333333	0
bin	0.46666666666667	0
bin	0.5	0
scalar MeshLAN.router[9].eth[9].queue.pauseQueue dropPk:count 0
attr interpolationmode none
attr source dropPkByQueue
attr title "dropped packets, count"
scalar MeshLAN.router[9].eth[9].queue.pauseQueue dropPk:sum(packetBytes) 0
attr interpolationmode none
attr source dropPkByQueue
attr title "dropped packets, sum(packetBytes)"
scalar MeshLAN.router[9].eth[9].queue.pauseQueue rcvdPk:count 0
attr interpolationmode none
attr title "received packets, count"
scalar MeshLAN.router[9].eth[9].queue.pauseQueue rcvdPk:sum(packetBytes) 0
attr interpolationmode none
attr title "received packets, sum(packetBytes)"
scalar MeshLAN.router[9].eth[9].queue.dataQueue queueLength:max 4
attr interpolationmode sample-hold
attr title "queue length, max"
scalar MeshLAN.router[9].eth[9].queue.dataQueue queueLength:timeavg 0.020884547941548
attr interpolationmode sample-hold
attr title "queue length, timeavg"
statistic MeshLAN.router[9].eth[9].queue.dataQueue queueingTime:histogram
field count 3151
field mean 9.9359847885116e-005
field stddev 0.00025162584877283
field min 0
field max 0.001981867079
field sum 0.313082880686
field sqrsum 0.00023055190587793
attr interpolationmode none
attr title "queueing time, histogram"
bin	-inf	0
bin	-0.0006541335395	0
bin	-0.00056691573423333	0
bin	-0.00047969792896667	0
bin	-0.0003924801237	0
bin	-0.00030526231843333	0
bin	-0.00021804451316667	0
bin	-0.0001308267079	0
bin	-4.3608902633333e-005	2589
bin	4.3608902633333e-005	50
bin	0.0001308267079	44
bin	0.00021804451316667	52
bin	0.00030526231843333	49
bin	0.0003924801237	50
bin	0.00047969792896667	51
bin	0.00056691573423333	38
bin	0.0006541335395	44
bin	0.00074135134476667	26
bin	0.00082856915003333	124
bin	0.0009157869553	1
bin	0.0010030047605667	2
bin	0.0010902225658333	10
bin	0.0011774403711	9
bin	0.0012646581763667	4
bin	0.0013518759816333	2
bin	0.0014390937869	2
bin	0.0015263115921667	2
bin	0.0016135293974333	1
bin	0.0017007472027	0
bin	0.0017879650079667	0
bin	0.0018751828132333	0
bin	0.0019624006185	1
scalar MeshLAN.router[9].eth[9].queue.dataQueue dropPk:count 0
attr interpolationmode none
attr source dropPkByQueue
attr title "dropped packets, count"
scalar MeshLAN.router[9].eth[9].queue.dataQueue dropPk:sum(packetBytes) 0
attr interpolationmode none
attr source dropPkByQueue
attr title "dropped packets, sum(packetBytes)"
scalar MeshLAN.router[9].eth[9].queue.dataQueue rcvdPk:count 3151
attr interpolationmode none
attr title "received packets, count"
scalar MeshLAN.router[9].eth[9].queue.dataQueue rcvdPk:sum(packetBytes) 2581066
attr interpolationmode none
attr title "received packets, sum(packetBytes)"
scalar MeshLAN.router[9].eth[9].mac "simulated time" 20
scalar MeshLAN.router[9].eth[9].mac full-duplex 1
scalar MeshLAN.router[9].eth[9].mac "frames/sec sent" 209.05
scalar MeshLAN.router[9].eth[9].mac "frames/sec rcvd" 212.85
scalar MeshLAN.router[9].eth[9].mac "bits/sec sent" 1362056
scalar MeshLAN.router[9].eth[9].mac "bits/sec rcvd" 1397438
scalar MeshLAN.router[9].eth[9].mac "rx channel idle (%)" 85.889396
scalar MeshLAN.router[9].eth[9].mac "rx channel utilization (%)" 14.110604
scalar MeshLAN.router[9].eth[9].mac rxPkFromHL:count 3151
attr interpolationmode none
attr source rxPkFromHL
attr title "packet bytes from higher layer, count"
scalar MeshLAN.router[9].eth[9].mac rxPkFromHL:sum(packetBytes) 2581066
attr interpolationmode none
attr source rxPkFromHL
attr title "packet bytes from higher layer, sum(packetBytes)"
scalar MeshLAN.router[9].eth[9].mac rxPausePkUnits:count 0
attr interpolationmode none
attr title "pause units received, count"
scalar MeshLAN.router[9].eth[9].mac rxPausePkUnits:sum 0
attr interpolationmode none
attr title "pause units received, sum"
scalar MeshLAN.router[9].eth[9].mac txPausePkUnits:count 0
attr interpolationmode none
attr title "pause units sent, count"
scalar MeshLAN.router[9].eth[9].mac txPausePkUnits:sum 0
attr interpolationmode none
attr title "pause units sent, sum"
scalar MeshLAN.router[9].eth[9].mac txPk:count 3151
attr interpolationmode none
attr source txPk
attr title "packets transmitted, count"
scalar MeshLAN.router[9].eth[9].mac txPk:sum(packetBytes) 2581066
attr interpolationmode none
attr source txPk
attr title "packets transmitted, sum(packetBytes)"
scalar MeshLAN.router[9].eth[9].mac droppedPkNotForUs:count 0
attr interpolationmode none
attr source dropPkNotForUs
attr title "packets dropped/not for us, count"
scalar MeshLAN.router[9].eth[9].mac droppedPkNotForUs:sum(packetBytes) 0
attr interpolationmode none
attr source dropPkNotForUs
attr title "packets dropped/not for us, sum(packetBytes)"
scalar MeshLAN.router[9].eth[9].mac droppedPkBitError:count 0
attr interpolationmode none
attr source dropPkBitError
attr title "packets dropped/bit error, count"
scalar MeshLAN.router[9].eth[9].mac droppedPkBitError:sum(packetBytes) 0
attr interpolationmode none
attr source dropPkBitError
attr title "packets dropped/bit error, sum(packetBytes)"
scalar MeshLAN.router[9].eth[9].mac droppedPkIfaceDown:count 0
attr interpolationmode none
attr source dropPkIfaceDown
attr title "packets dropped/interface down, count"
scalar MeshLAN.router[9].eth[9].mac droppedPkIfaceDown:sum(packetBytes) 0
attr interpolationmode none
attr source dropPkIfaceDown
attr title "packets dropped/interface down, sum(packetBytes)"
scalar MeshLAN.router[9].eth[9].mac rxPkOk:count 3187
attr interpolationmode none
attr source rxPkOk
attr title "packets received OK, count"
scalar MeshLAN.router[9].eth[9].mac rxPkOk:sum(packetBytes) 2623966
attr interpolationmode none
attr source rxPkOk
attr title "packets received OK, sum(packetBytes)"
scalar MeshLAN.router[9].eth[9].mac passedUpPk:count 3187
attr interpolationmode none
attr source packetSentToUpper
attr title "packets passed to higher layer, count"
scalar MeshLAN.router[9].eth[9].mac passedUpPk:sum(packetBytes) 2623966
attr interpolationmode none
attr source packetSentToUpper
attr title "packets passed to higher layer, sum(packetBytes)"
scalar MeshLAN.router[9].eth[9].encap pauseSent:count 0
attr title "pause sent, count"
scalar MeshLAN.router[9].eth[9].encap pauseSent:sum 0
attr title "pause sent, sum"
scalar MeshLAN.router[9].eth[9].encap decapPk:count 3187
attr interpolationmode none
attr source decapPk
attr title "packets decapsulated, count"
scalar MeshLAN.router[9].eth[9].encap decapPk:sum(packetBytes) 2566540
attr interpolationmode none
attr source decapPk
attr title "packets decapsulated, sum(packetBytes)"
scalar MeshLAN.router[9].eth[9].encap encapPk:count 3151
attr interpolationmode none
attr source encapPk
attr title "packets encapsulated, count"
scalar MeshLAN.router[9].eth[9].encap encapPk:sum(packetBytes) 2524288
attr interpolationmode none
attr source encapPk
attr title "packets encapsulated, sum(packetBytes)"

