version 2
run MeshLAN10-datarate-1-20180110-21:50:07-6368
attr configname MeshLAN10-datarate
attr datetime 20180110-21:50:07
attr experiment MeshLAN10-datarate
attr inifile MeshLAN.ini
attr iterationvars $pa=29
attr iterationvarsf pa=29-
attr measurement $pa=29
attr network MeshLAN
attr processid 6368
attr repetition 0
attr replication #0
attr resultdir results
attr runnumber 1
attr seedset 1
itervar pa 29
param *.numHosts 10
param **.datarate 100Mbps
param **.host[*].pingApp[*].sendInterval "truncnormal(50ms, 25ms)"
param **.host[*].pingApp[*].packetSize "truncnormal(1024B, 512B)"
param **.queueType "\"DropTailQueue\""
param **.frameCapacity 10
param **.mtu 1024B
param **.host[*].numPingApps 29
param **.host[*].pingApp[*].typename "\"PingApp\""
param **.host[*].pingApp[*].count 1
param **.host[*].pingApp[*].startTime "truncnormal(200ms, 100ms)"
param **.host[*].pingApp[*].destAddr "\"*\""

scalar MeshLAN.host[0].networkLayer.arp sentReply:count 0
attr title "ARP replies sent, count"
scalar MeshLAN.host[0].networkLayer.arp sentReq:count 0
attr title "ARP request sent, count"
scalar MeshLAN.host[0].networkLayer.arp failedARPResolution:count 0
attr title "ARP failed resolutions, count"
scalar MeshLAN.host[0].networkLayer.arp completedARPResolution:count 0
attr title "ARP completed resolutions, count"
scalar MeshLAN.host[0].networkLayer.arp initiatedARPResolution:count 0
attr title "ARP initiated resolutions, count"
scalar MeshLAN.host[0].lo0.lo droppedPkBitError:count 0
attr interpolationmode none
attr source dropPkBitError
attr title "packets dropped/bit error, count"
scalar MeshLAN.host[0].lo0.lo droppedPkBitError:sum(packetBytes) 0
attr interpolationmode none
attr source dropPkBitError
attr title "packets dropped/bit error, sum(packetBytes)"
scalar MeshLAN.host[0].lo0.lo rcvdPkFromHL:count 202
attr interpolationmode none
attr source packetReceivedFromUpper
attr title "packets received from higher layer, count"
scalar MeshLAN.host[0].lo0.lo rcvdPkFromHL:sum(packetBytes) 141864
attr interpolationmode none
attr source packetReceivedFromUpper
attr title "packets received from higher layer, sum(packetBytes)"
scalar MeshLAN.host[0].lo0.lo passedUpPk:count 202
attr interpolationmode none
attr source packetSentToUpper
attr title "packets passed to higher layer, count"
scalar MeshLAN.host[0].lo0.lo passedUpPk:sum(packetBytes) 141864
attr interpolationmode none
attr source packetSentToUpper
attr title "packets passed to higher layer, sum(packetBytes)"
scalar MeshLAN.host[0].eth[0].queue.pauseQueue queueLength:max nan
attr interpolationmode sample-hold
attr title "queue length, max"
scalar MeshLAN.host[0].eth[0].queue.pauseQueue queueLength:timeavg nan
attr interpolationmode sample-hold
attr title "queue length, timeavg"
statistic MeshLAN.host[0].eth[0].queue.pauseQueue queueingTime:histogram
field count 0
field mean nan
field stddev nan
field min nan
field max nan
field sum 0
field sqrsum 0
attr interpolationmode none
attr title "queueing time, histogram"
bin	-inf	0
bin	-0.5	0
bin	-0.46666666666667	0
bin	-0.43333333333333	0
bin	-0.4	0
bin	-0.36666666666667	0
bin	-0.33333333333333	0
bin	-0.3	0
bin	-0.26666666666667	0
bin	-0.23333333333333	0
bin	-0.2	0
bin	-0.16666666666667	0
bin	-0.13333333333333	0
bin	-0.1	0
bin	-0.066666666666667	0
bin	-0.033333333333333	0
bin	0	0
bin	0.033333333333333	0
bin	0.066666666666667	0
bin	0.1	0
bin	0.13333333333333	0
bin	0.16666666666667	0
bin	0.2	0
bin	0.23333333333333	0
bin	0.26666666666667	0
bin	0.3	0
bin	0.33333333333333	0
bin	0.36666666666667	0
bin	0.4	0
bin	0.43333333333333	0
bin	0.46666666666667	0
bin	0.5	0
scalar MeshLAN.host[0].eth[0].queue.pauseQueue dropPk:count 0
attr interpolationmode none
attr source dropPkByQueue
attr title "dropped packets, count"
scalar MeshLAN.host[0].eth[0].queue.pauseQueue dropPk:sum(packetBytes) 0
attr interpolationmode none
attr source dropPkByQueue
attr title "dropped packets, sum(packetBytes)"
scalar MeshLAN.host[0].eth[0].queue.pauseQueue rcvdPk:count 0
attr interpolationmode none
attr title "received packets, count"
scalar MeshLAN.host[0].eth[0].queue.pauseQueue rcvdPk:sum(packetBytes) 0
attr interpolationmode none
attr title "received packets, sum(packetBytes)"
scalar MeshLAN.host[0].eth[0].queue.dataQueue queueLength:max 5
attr interpolationmode sample-hold
attr title "queue length, max"
scalar MeshLAN.host[0].eth[0].queue.dataQueue queueLength:timeavg 0.029486139566884
attr interpolationmode sample-hold
attr title "queue length, timeavg"
statistic MeshLAN.host[0].eth[0].queue.dataQueue queueingTime:histogram
field count 13825
field mean 3.1987843097724e-005
field stddev 4.342376579299e-005
field min 0
field max 0.000278874011
field sum 0.44223193082604
field sqrsum 4.0212903990416e-005
attr interpolationmode none
attr title "queueing time, histogram"
bin	-inf	0
bin	-4.232e-005	0
bin	-3.6677333333333e-005	0
bin	-3.1034666666667e-005	0
bin	-2.5392e-005	0
bin	-1.9749333333333e-005	0
bin	-1.4106666666667e-005	0
bin	-8.464e-006	0
bin	-2.8213333333333e-006	8658
bin	2.8213333333333e-006	23
bin	8.464e-006	27
bin	1.4106666666667e-005	25
bin	1.9749333333333e-005	25
bin	2.5392e-005	22
bin	3.1034666666667e-005	28
bin	3.6677333333333e-005	28
bin	4.232e-005	23
bin	4.7962666666667e-005	25
bin	5.3605333333333e-005	33
bin	5.9248e-005	26
bin	6.4890666666667e-005	21
bin	7.0533333333333e-005	21
bin	7.6176e-005	11
bin	8.1818666666667e-005	4458
bin	8.7461333333333e-005	30
bin	9.3104e-005	23
bin	9.8746666666667e-005	21
bin	0.00010438933333333	30
bin	0.000110032	23
bin	0.00011567466666667	19
bin	0.00012131733333333	17
bin	0.00012696	208
scalar MeshLAN.host[0].eth[0].queue.dataQueue dropPk:count 0
attr interpolationmode none
attr source dropPkByQueue
attr title "dropped packets, count"
scalar MeshLAN.host[0].eth[0].queue.dataQueue dropPk:sum(packetBytes) 0
attr interpolationmode none
attr source dropPkByQueue
attr title "dropped packets, sum(packetBytes)"
scalar MeshLAN.host[0].eth[0].queue.dataQueue rcvdPk:count 13825
attr interpolationmode none
attr title "received packets, count"
scalar MeshLAN.host[0].eth[0].queue.dataQueue rcvdPk:sum(packetBytes) 9957421
attr interpolationmode none
attr title "received packets, sum(packetBytes)"
scalar MeshLAN.host[0].eth[0].mac "simulated time" 20
scalar MeshLAN.host[0].eth[0].mac full-duplex 1
scalar MeshLAN.host[0].eth[0].mac "frames/sec sent" 929.4
scalar MeshLAN.host[0].eth[0].mac "frames/sec rcvd" 929.4
scalar MeshLAN.host[0].eth[0].mac "bits/sec sent" 5353763.2
scalar MeshLAN.host[0].eth[0].mac "bits/sec rcvd" 5353763.2
scalar MeshLAN.host[0].eth[0].mac "rx channel idle (%)" 94.5867552
scalar MeshLAN.host[0].eth[0].mac "rx channel utilization (%)" 5.4132448
scalar MeshLAN.host[0].eth[0].mac rxPkFromHL:count 13825
attr interpolationmode none
attr source rxPkFromHL
attr title "packet bytes from higher layer, count"
scalar MeshLAN.host[0].eth[0].mac rxPkFromHL:sum(packetBytes) 9957421
attr interpolationmode none
attr source rxPkFromHL
attr title "packet bytes from higher layer, sum(packetBytes)"
scalar MeshLAN.host[0].eth[0].mac rxPausePkUnits:count 0
attr interpolationmode none
attr title "pause units received, count"
scalar MeshLAN.host[0].eth[0].mac rxPausePkUnits:sum 0
attr interpolationmode none
attr title "pause units received, sum"
scalar MeshLAN.host[0].eth[0].mac txPausePkUnits:count 0
attr interpolationmode none
attr title "pause units sent, count"
scalar MeshLAN.host[0].eth[0].mac txPausePkUnits:sum 0
attr interpolationmode none
attr title "pause units sent, sum"
scalar MeshLAN.host[0].eth[0].mac txPk:count 13825
attr interpolationmode none
attr source txPk
attr title "packets transmitted, count"
scalar MeshLAN.host[0].eth[0].mac txPk:sum(packetBytes) 9957421
attr interpolationmode none
attr source txPk
attr title "packets transmitted, sum(packetBytes)"
scalar MeshLAN.host[0].eth[0].mac droppedPkNotForUs:count 0
attr interpolationmode none
attr source dropPkNotForUs
attr title "packets dropped/not for us, count"
scalar MeshLAN.host[0].eth[0].mac droppedPkNotForUs:sum(packetBytes) 0
attr interpolationmode none
attr source dropPkNotForUs
attr title "packets dropped/not for us, sum(packetBytes)"
scalar MeshLAN.host[0].eth[0].mac droppedPkBitError:count 0
attr interpolationmode none
attr source dropPkBitError
attr title "packets dropped/bit error, count"
scalar MeshLAN.host[0].eth[0].mac droppedPkBitError:sum(packetBytes) 0
attr interpolationmode none
attr source dropPkBitError
attr title "packets dropped/bit error, sum(packetBytes)"
scalar MeshLAN.host[0].eth[0].mac droppedPkIfaceDown:count 0
attr interpolationmode none
attr source dropPkIfaceDown
attr title "packets dropped/interface down, count"
scalar MeshLAN.host[0].eth[0].mac droppedPkIfaceDown:sum(packetBytes) 0
attr interpolationmode none
attr source dropPkIfaceDown
attr title "packets dropped/interface down, sum(packetBytes)"
scalar MeshLAN.host[0].eth[0].mac rxPkOk:count 13825
attr interpolationmode none
attr source rxPkOk
attr title "packets received OK, count"
scalar MeshLAN.host[0].eth[0].mac rxPkOk:sum(packetBytes) 9957421
attr interpolationmode none
attr source rxPkOk
attr title "packets received OK, sum(packetBytes)"
scalar MeshLAN.host[0].eth[0].mac passedUpPk:count 13825
attr interpolationmode none
attr source packetSentToUpper
attr title "packets passed to higher layer, count"
scalar MeshLAN.host[0].eth[0].mac passedUpPk:sum(packetBytes) 9957421
attr interpolationmode none
attr source packetSentToUpper
attr title "packets passed to higher layer, sum(packetBytes)"
scalar MeshLAN.host[0].eth[0].encap pauseSent:count 0
attr title "pause sent, count"
scalar MeshLAN.host[0].eth[0].encap pauseSent:sum 0
attr title "pause sent, sum"
scalar MeshLAN.host[0].eth[0].encap decapPk:count 13825
attr interpolationmode none
attr source decapPk
attr title "packets decapsulated, count"
scalar MeshLAN.host[0].eth[0].encap decapPk:sum(packetBytes) 9708382
attr interpolationmode none
attr source decapPk
attr title "packets decapsulated, sum(packetBytes)"
scalar MeshLAN.host[0].eth[0].encap encapPk:count 13825
attr interpolationmode none
attr source encapPk
attr title "packets encapsulated, count"
scalar MeshLAN.host[0].eth[0].encap encapPk:sum(packetBytes) 9708382
attr interpolationmode none
attr source encapPk
attr title "packets encapsulated, sum(packetBytes)"
scalar MeshLAN.host[0].pingApp[0] "Pings sent" 366
scalar MeshLAN.host[0].pingApp[0] "ping loss rate (%)" 0
scalar MeshLAN.host[0].pingApp[0] "ping out-of-order rate (%)" 0
scalar MeshLAN.host[0].pingApp[0] pingRxSeq:count 281
attr interpolationmode none
attr title "ping rx seq, count"
scalar MeshLAN.host[0].pingApp[0] pingTxSeq:count 281
attr interpolationmode none
attr title "ping tx seq, count"
scalar MeshLAN.host[0].pingApp[0] numOutOfOrderArrivals:last nan
attr interpolationmode none
attr title "ping out-of-order arrivals, last"
scalar MeshLAN.host[0].pingApp[0] numLost:last nan
attr interpolationmode none
attr title "pings lost, last"
scalar MeshLAN.host[0].pingApp[0] rtt:mean 0.00044659800248387
attr interpolationmode none
attr title "ping round-trip time, mean"
attr unit s
scalar MeshLAN.host[0].pingApp[1] "Pings sent" 376
scalar MeshLAN.host[0].pingApp[1] "ping loss rate (%)" 0
scalar MeshLAN.host[0].pingApp[1] "ping out-of-order rate (%)" 0
scalar MeshLAN.host[0].pingApp[1] pingRxSeq:count 284
attr interpolationmode none
attr title "ping rx seq, count"
scalar MeshLAN.host[0].pingApp[1] pingTxSeq:count 284
attr interpolationmode none
attr title "ping tx seq, count"
scalar MeshLAN.host[0].pingApp[1] numOutOfOrderArrivals:last nan
attr interpolationmode none
attr title "ping out-of-order arrivals, last"
scalar MeshLAN.host[0].pingApp[1] numLost:last nan
attr interpolationmode none
attr title "pings lost, last"
scalar MeshLAN.host[0].pingApp[1] rtt:mean 0.00036309246715194
attr interpolationmode none
attr title "ping round-trip time, mean"
attr unit s
scalar MeshLAN.host[0].pingApp[2] "Pings sent" 383
scalar MeshLAN.host[0].pingApp[2] "ping loss rate (%)" 0
scalar MeshLAN.host[0].pingApp[2] "ping out-of-order rate (%)" 0
scalar MeshLAN.host[0].pingApp[2] pingRxSeq:count 279
attr interpolationmode none
attr title "ping rx seq, count"
scalar MeshLAN.host[0].pingApp[2] pingTxSeq:count 279
attr interpolationmode none
attr title "ping tx seq, count"
scalar MeshLAN.host[0].pingApp[2] numOutOfOrderArrivals:last nan
attr interpolationmode none
attr title "ping out-of-order arrivals, last"
scalar MeshLAN.host[0].pingApp[2] numLost:last nan
attr interpolationmode none
attr title "pings lost, last"
scalar MeshLAN.host[0].pingApp[2] rtt:mean 0.00035492383312454
attr interpolationmode none
attr title "ping round-trip time, mean"
attr unit s
scalar MeshLAN.host[0].pingApp[3] "Pings sent" 385
scalar MeshLAN.host[0].pingApp[3] "ping loss rate (%)" 0
scalar MeshLAN.host[0].pingApp[3] "ping out-of-order rate (%)" 0
scalar MeshLAN.host[0].pingApp[3] pingRxSeq:count 292
attr interpolationmode none
attr title "ping rx seq, count"
scalar MeshLAN.host[0].pingApp[3] pingTxSeq:count 292
attr interpolationmode none
attr title "ping tx seq, count"
scalar MeshLAN.host[0].pingApp[3] numOutOfOrderArrivals:last nan
attr interpolationmode none
attr title "ping out-of-order arrivals, last"
scalar MeshLAN.host[0].pingApp[3] numLost:last nan
attr interpolationmode none
attr title "pings lost, last"
scalar MeshLAN.host[0].pingApp[3] rtt:mean 0.0002770687592069
attr interpolationmode none
attr title "ping round-trip time, mean"
attr unit s
scalar MeshLAN.host[0].pingApp[4] "Pings sent" 388
scalar MeshLAN.host[0].pingApp[4] "ping loss rate (%)" 0
scalar MeshLAN.host[0].pingApp[4] "ping out-of-order rate (%)" 0
scalar MeshLAN.host[0].pingApp[4] pingRxSeq:count 300
attr interpolationmode none
attr title "ping rx seq, count"
scalar MeshLAN.host[0].pingApp[4] pingTxSeq:count 300
attr interpolationmode none
attr title "ping tx seq, count"
scalar MeshLAN.host[0].pingApp[4] numOutOfOrderArrivals:last nan
attr interpolationmode none
attr title "ping out-of-order arrivals, last"
scalar MeshLAN.host[0].pingApp[4] numLost:last nan
attr interpolationmode none
attr title "pings lost, last"
scalar MeshLAN.host[0].pingApp[4] rtt:mean 0.00043101517005686
attr interpolationmode none
attr title "ping round-trip time, mean"
attr unit s
scalar MeshLAN.host[0].pingApp[5] "Pings sent" 382
scalar MeshLAN.host[0].pingApp[5] "ping loss rate (%)" 0
scalar MeshLAN.host[0].pingApp[5] "ping out-of-order rate (%)" 0
scalar MeshLAN.host[0].pingApp[5] pingRxSeq:count 291
attr interpolationmode none
attr title "ping rx seq, count"
scalar MeshLAN.host[0].pingApp[5] pingTxSeq:count 291
attr interpolationmode none
attr title "ping tx seq, count"
scalar MeshLAN.host[0].pingApp[5] numOutOfOrderArrivals:last nan
attr interpolationmode none
attr title "ping out-of-order arrivals, last"
scalar MeshLAN.host[0].pingApp[5] numLost:last nan
attr interpolationmode none
attr title "pings lost, last"
scalar MeshLAN.host[0].pingApp[5] rtt:mean 0.00027654588558276
attr interpolationmode none
attr title "ping round-trip time, mean"
attr unit s
scalar MeshLAN.host[0].pingApp[6] "Pings sent" 390
scalar MeshLAN.host[0].pingApp[6] "ping loss rate (%)" 0
scalar MeshLAN.host[0].pingApp[6] "ping out-of-order rate (%)" 0
scalar MeshLAN.host[0].pingApp[6] pingRxSeq:count 289
attr interpolationmode none
attr title "ping rx seq, count"
scalar MeshLAN.host[0].pingApp[6] pingTxSeq:count 289
attr interpolationmode none
attr title "ping tx seq, count"
scalar MeshLAN.host[0].pingApp[6] numOutOfOrderArrivals:last nan
attr interpolationmode none
attr title "ping out-of-order arrivals, last"
scalar MeshLAN.host[0].pingApp[6] numLost:last nan
attr interpolationmode none
attr title "pings lost, last"
scalar MeshLAN.host[0].pingApp[6] rtt:mean 0.00024364553124306
attr interpolationmode none
attr title "ping round-trip time, mean"
attr unit s
scalar MeshLAN.host[0].pingApp[7] "Pings sent" 381
scalar MeshLAN.host[0].pingApp[7] "ping loss rate (%)" 0
scalar MeshLAN.host[0].pingApp[7] "ping out-of-order rate (%)" 0
scalar MeshLAN.host[0].pingApp[7] pingRxSeq:count 294
attr interpolationmode none
attr title "ping rx seq, count"
scalar MeshLAN.host[0].pingApp[7] pingTxSeq:count 294
attr interpolationmode none
attr title "ping tx seq, count"
scalar MeshLAN.host[0].pingApp[7] numOutOfOrderArrivals:last nan
attr interpolationmode none
attr title "ping out-of-order arrivals, last"
scalar MeshLAN.host[0].pingApp[7] numLost:last nan
attr interpolationmode none
attr title "pings lost, last"
scalar MeshLAN.host[0].pingApp[7] rtt:mean 0.00032268265054983
attr interpolationmode none
attr title "ping round-trip time, mean"
attr unit s
scalar MeshLAN.host[0].pingApp[8] "Pings sent" 399
scalar MeshLAN.host[0].pingApp[8] "ping loss rate (%)" 0
scalar MeshLAN.host[0].pingApp[8] "ping out-of-order rate (%)" 0
scalar MeshLAN.host[0].pingApp[8] pingRxSeq:count 303
attr interpolationmode none
attr title "ping rx seq, count"
scalar MeshLAN.host[0].pingApp[8] pingTxSeq:count 303
attr interpolationmode none
attr title "ping tx seq, count"
scalar MeshLAN.host[0].pingApp[8] numOutOfOrderArrivals:last nan
attr interpolationmode none
attr title "ping out-of-order arrivals, last"
scalar MeshLAN.host[0].pingApp[8] numLost:last nan
attr interpolationmode none
attr title "pings lost, last"
scalar MeshLAN.host[0].pingApp[8] rtt:mean 0.0001858238712093
attr interpolationmode none
attr title "ping round-trip time, mean"
attr unit s
scalar MeshLAN.host[0].pingApp[9] "Pings sent" 378
scalar MeshLAN.host[0].pingApp[9] "ping loss rate (%)" 0
scalar MeshLAN.host[0].pingApp[9] "ping out-of-order rate (%)" 0
scalar MeshLAN.host[0].pingApp[9] pingRxSeq:count 276
attr interpolationmode none
attr title "ping rx seq, count"
scalar MeshLAN.host[0].pingApp[9] pingTxSeq:count 276
attr interpolationmode none
attr title "ping tx seq, count"
scalar MeshLAN.host[0].pingApp[9] numOutOfOrderArrivals:last nan
attr interpolationmode none
attr title "ping out-of-order arrivals, last"
scalar MeshLAN.host[0].pingApp[9] numLost:last nan
attr interpolationmode none
attr title "pings lost, last"
scalar MeshLAN.host[0].pingApp[9] rtt:mean 0.00039397581985454
attr interpolationmode none
attr title "ping round-trip time, mean"
attr unit s
scalar MeshLAN.host[0].pingApp[10] "Pings sent" 383
scalar MeshLAN.host[0].pingApp[10] "ping loss rate (%)" 0
scalar MeshLAN.host[0].pingApp[10] "ping out-of-order rate (%)" 0
scalar MeshLAN.host[0].pingApp[10] pingRxSeq:count 291
attr interpolationmode none
attr title "ping rx seq, count"
scalar MeshLAN.host[0].pingApp[10] pingTxSeq:count 291
attr interpolationmode none
attr title "ping tx seq, count"
scalar MeshLAN.host[0].pingApp[10] numOutOfOrderArrivals:last nan
attr interpolationmode none
attr title "ping out-of-order arrivals, last"
scalar MeshLAN.host[0].pingApp[10] numLost:last nan
attr interpolationmode none
attr title "pings lost, last"
scalar MeshLAN.host[0].pingApp[10] rtt:mean 0.00028704360831597
attr interpolationmode none
attr title "ping round-trip time, mean"
attr unit s
scalar MeshLAN.host[0].pingApp[11] "Pings sent" 377
scalar MeshLAN.host[0].pingApp[11] "ping loss rate (%)" 0
scalar MeshLAN.host[0].pingApp[11] "ping out-of-order rate (%)" 0
scalar MeshLAN.host[0].pingApp[11] pingRxSeq:count 280
attr interpolationmode none
attr title "ping rx seq, count"
scalar MeshLAN.host[0].pingApp[11] pingTxSeq:count 280
attr interpolationmode none
attr title "ping tx seq, count"
scalar MeshLAN.host[0].pingApp[11] numOutOfOrderArrivals:last nan
attr interpolationmode none
attr title "ping out-of-order arrivals, last"
scalar MeshLAN.host[0].pingApp[11] numLost:last nan
attr interpolationmode none
attr title "pings lost, last"
scalar MeshLAN.host[0].pingApp[11] rtt:mean 0.00041412421248737
attr interpolationmode none
attr title "ping round-trip time, mean"
attr unit s
scalar MeshLAN.host[0].pingApp[12] "Pings sent" 380
scalar MeshLAN.host[0].pingApp[12] "ping loss rate (%)" 0
scalar MeshLAN.host[0].pingApp[12] "ping out-of-order rate (%)" 0
scalar MeshLAN.host[0].pingApp[12] pingRxSeq:count 291
attr interpolationmode none
attr title "ping rx seq, count"
scalar MeshLAN.host[0].pingApp[12] pingTxSeq:count 291
attr interpolationmode none
attr title "ping tx seq, count"
scalar MeshLAN.host[0].pingApp[12] numOutOfOrderArrivals:last nan
attr interpolationmode none
attr title "ping out-of-order arrivals, last"
scalar MeshLAN.host[0].pingApp[12] numLost:last nan
attr interpolationmode none
attr title "pings lost, last"
scalar MeshLAN.host[0].pingApp[12] rtt:mean 0.00046202299600697
attr interpolationmode none
attr title "ping round-trip time, mean"
attr unit s
scalar MeshLAN.host[0].pingApp[13] "Pings sent" 374
scalar MeshLAN.host[0].pingApp[13] "ping loss rate (%)" 0
scalar MeshLAN.host[0].pingApp[13] "ping out-of-order rate (%)" 0
scalar MeshLAN.host[0].pingApp[13] pingRxSeq:count 281
attr interpolationmode none
attr title "ping rx seq, count"
scalar MeshLAN.host[0].pingApp[13] pingTxSeq:count 281
attr interpolationmode none
attr title "ping tx seq, count"
scalar MeshLAN.host[0].pingApp[13] numOutOfOrderArrivals:last nan
attr interpolationmode none
attr title "ping out-of-order arrivals, last"
scalar MeshLAN.host[0].pingApp[13] numLost:last nan
attr interpolationmode none
attr title "pings lost, last"
scalar MeshLAN.host[0].pingApp[13] rtt:mean 0.00038309924637143
attr interpolationmode none
attr title "ping round-trip time, mean"
attr unit s
scalar MeshLAN.host[0].pingApp[14] "Pings sent" 389
scalar MeshLAN.host[0].pingApp[14] "ping loss rate (%)" 0
scalar MeshLAN.host[0].pingApp[14] "ping out-of-order rate (%)" 0
scalar MeshLAN.host[0].pingApp[14] pingRxSeq:count 299
attr interpolationmode none
attr title "ping rx seq, count"
scalar MeshLAN.host[0].pingApp[14] pingTxSeq:count 299
attr interpolationmode none
attr title "ping tx seq, count"
scalar MeshLAN.host[0].pingApp[14] numOutOfOrderArrivals:last nan
attr interpolationmode none
attr title "ping out-of-order arrivals, last"
scalar MeshLAN.host[0].pingApp[14] numLost:last nan
attr interpolationmode none
attr title "pings lost, last"
scalar MeshLAN.host[0].pingApp[14] rtt:mean 0.00039529760803378
attr interpolationmode none
attr title "ping round-trip time, mean"
attr unit s
scalar MeshLAN.host[0].pingApp[15] "Pings sent" 378
scalar MeshLAN.host[0].pingApp[15] "ping loss rate (%)" 0
scalar MeshLAN.host[0].pingApp[15] "ping out-of-order rate (%)" 0
scalar MeshLAN.host[0].pingApp[15] pingRxSeq:count 284
attr interpolationmode none
attr title "ping rx seq, count"
scalar MeshLAN.host[0].pingApp[15] pingTxSeq:count 284
attr interpolationmode none
attr title "ping tx seq, count"
scalar MeshLAN.host[0].pingApp[15] numOutOfOrderArrivals:last nan
attr interpolationmode none
attr title "ping out-of-order arrivals, last"
scalar MeshLAN.host[0].pingApp[15] numLost:last nan
attr interpolationmode none
attr title "pings lost, last"
scalar MeshLAN.host[0].pingApp[15] rtt:mean 0.00029276698320141
attr interpolationmode none
attr title "ping round-trip time, mean"
attr unit s
scalar MeshLAN.host[0].pingApp[16] "Pings sent" 371
scalar MeshLAN.host[0].pingApp[16] "ping loss rate (%)" 0
scalar MeshLAN.host[0].pingApp[16] "ping out-of-order rate (%)" 0
scalar MeshLAN.host[0].pingApp[16] pingRxSeq:count 283
attr interpolationmode none
attr title "ping rx seq, count"
scalar MeshLAN.host[0].pingApp[16] pingTxSeq:count 283
attr interpolationmode none
attr title "ping tx seq, count"
scalar MeshLAN.host[0].pingApp[16] numOutOfOrderArrivals:last nan
attr interpolationmode none
attr title "ping out-of-order arrivals, last"
scalar MeshLAN.host[0].pingApp[16] numLost:last nan
attr interpolationmode none
attr title "pings lost, last"
scalar MeshLAN.host[0].pingApp[16] rtt:mean 0.00038197342991786
attr interpolationmode none
attr title "ping round-trip time, mean"
attr unit s
scalar MeshLAN.host[0].pingApp[17] "Pings sent" 389
scalar MeshLAN.host[0].pingApp[17] "ping loss rate (%)" 0
scalar MeshLAN.host[0].pingApp[17] "ping out-of-order rate (%)" 0
scalar MeshLAN.host[0].pingApp[17] pingRxSeq:count 300
attr interpolationmode none
attr title "ping rx seq, count"
scalar MeshLAN.host[0].pingApp[17] pingTxSeq:count 300
attr interpolationmode none
attr title "ping tx seq, count"
scalar MeshLAN.host[0].pingApp[17] numOutOfOrderArrivals:last nan
attr interpolationmode none
attr title "ping out-of-order arrivals, last"
scalar MeshLAN.host[0].pingApp[17] numLost:last nan
attr interpolationmode none
attr title "pings lost, last"
scalar MeshLAN.host[0].pingApp[17] rtt:mean 0.00039713433118456
attr interpolationmode none
attr title "ping round-trip time, mean"
attr unit s
scalar MeshLAN.host[0].pingApp[18] "Pings sent" 388
scalar MeshLAN.host[0].pingApp[18] "ping loss rate (%)" 0
scalar MeshLAN.host[0].pingApp[18] "ping out-of-order rate (%)" 0
scalar MeshLAN.host[0].pingApp[18] pingRxSeq:count 300
attr interpolationmode none
attr title "ping rx seq, count"
scalar MeshLAN.host[0].pingApp[18] pingTxSeq:count 300
attr interpolationmode none
attr title "ping tx seq, count"
scalar MeshLAN.host[0].pingApp[18] numOutOfOrderArrivals:last nan
attr interpolationmode none
attr title "ping out-of-order arrivals, last"
scalar MeshLAN.host[0].pingApp[18] numLost:last nan
attr interpolationmode none
attr title "pings lost, last"
scalar MeshLAN.host[0].pingApp[18] rtt:mean 8.8917446363636e-005
attr interpolationmode none
attr title "ping round-trip time, mean"
attr unit s
scalar MeshLAN.host[0].pingApp[19] "Pings sent" 386
scalar MeshLAN.host[0].pingApp[19] "ping loss rate (%)" 0
scalar MeshLAN.host[0].pingApp[19] "ping out-of-order rate (%)" 0
scalar MeshLAN.host[0].pingApp[19] pingRxSeq:count 283
attr interpolationmode none
attr title "ping rx seq, count"
scalar MeshLAN.host[0].pingApp[19] pingTxSeq:count 283
attr interpolationmode none
attr title "ping tx seq, count"
scalar MeshLAN.host[0].pingApp[19] numOutOfOrderArrivals:last nan
attr interpolationmode none
attr title "ping out-of-order arrivals, last"
scalar MeshLAN.host[0].pingApp[19] numLost:last nan
attr interpolationmode none
attr title "pings lost, last"
scalar MeshLAN.host[0].pingApp[19] rtt:mean 0.00015344507090036
attr interpolationmode none
attr title "ping round-trip time, mean"
attr unit s
scalar MeshLAN.host[0].pingApp[20] "Pings sent" 394
scalar MeshLAN.host[0].pingApp[20] "ping loss rate (%)" 0
scalar MeshLAN.host[0].pingApp[20] "ping out-of-order rate (%)" 0
scalar MeshLAN.host[0].pingApp[20] pingRxSeq:count 292
attr interpolationmode none
attr title "ping rx seq, count"
scalar MeshLAN.host[0].pingApp[20] pingTxSeq:count 292
attr interpolationmode none
attr title "ping tx seq, count"
scalar MeshLAN.host[0].pingApp[20] numOutOfOrderArrivals:last nan
attr interpolationmode none
attr title "ping out-of-order arrivals, last"
scalar MeshLAN.host[0].pingApp[20] numLost:last nan
attr interpolationmode none
attr title "pings lost, last"
scalar MeshLAN.host[0].pingApp[20] rtt:mean 0.00026160283889273
attr interpolationmode none
attr title "ping round-trip time, mean"
attr unit s
scalar MeshLAN.host[0].pingApp[21] "Pings sent" 380
scalar MeshLAN.host[0].pingApp[21] "ping loss rate (%)" 0
scalar MeshLAN.host[0].pingApp[21] "ping out-of-order rate (%)" 0
scalar MeshLAN.host[0].pingApp[21] pingRxSeq:count 291
attr interpolationmode none
attr title "ping rx seq, count"
scalar MeshLAN.host[0].pingApp[21] pingTxSeq:count 291
attr interpolationmode none
attr title "ping tx seq, count"
scalar MeshLAN.host[0].pingApp[21] numOutOfOrderArrivals:last nan
attr interpolationmode none
attr title "ping out-of-order arrivals, last"
scalar MeshLAN.host[0].pingApp[21] numLost:last nan
attr interpolationmode none
attr title "pings lost, last"
scalar MeshLAN.host[0].pingApp[21] rtt:mean 0.00038415840164706
attr interpolationmode none
attr title "ping round-trip time, mean"
attr unit s
scalar MeshLAN.host[0].pingApp[22] "Pings sent" 384
scalar MeshLAN.host[0].pingApp[22] "ping loss rate (%)" 0
scalar MeshLAN.host[0].pingApp[22] "ping out-of-order rate (%)" 0
scalar MeshLAN.host[0].pingApp[22] pingRxSeq:count 299
attr interpolationmode none
attr title "ping rx seq, count"
scalar MeshLAN.host[0].pingApp[22] pingTxSeq:count 299
attr interpolationmode none
attr title "ping tx seq, count"
scalar MeshLAN.host[0].pingApp[22] numOutOfOrderArrivals:last nan
attr interpolationmode none
attr title "ping out-of-order arrivals, last"
scalar MeshLAN.host[0].pingApp[22] numLost:last nan
attr interpolationmode none
attr title "pings lost, last"
scalar MeshLAN.host[0].pingApp[22] rtt:mean 0.00017410522593624
attr interpolationmode none
attr title "ping round-trip time, mean"
attr unit s
scalar MeshLAN.host[0].pingApp[23] "Pings sent" 382
scalar MeshLAN.host[0].pingApp[23] "ping loss rate (%)" 0
scalar MeshLAN.host[0].pingApp[23] "ping out-of-order rate (%)" 0
scalar MeshLAN.host[0].pingApp[23] pingRxSeq:count 287
attr interpolationmode none
attr title "ping rx seq, count"
scalar MeshLAN.host[0].pingApp[23] pingTxSeq:count 287
attr interpolationmode none
attr title "ping tx seq, count"
scalar MeshLAN.host[0].pingApp[23] numOutOfOrderArrivals:last nan
attr interpolationmode none
attr title "ping out-of-order arrivals, last"
scalar MeshLAN.host[0].pingApp[23] numLost:last nan
attr interpolationmode none
attr title "pings lost, last"
scalar MeshLAN.host[0].pingApp[23] rtt:mean 0.00040451650821831
attr interpolationmode none
attr title "ping round-trip time, mean"
attr unit s
scalar MeshLAN.host[0].pingApp[24] "Pings sent" 398
scalar MeshLAN.host[0].pingApp[24] "ping loss rate (%)" 0
scalar MeshLAN.host[0].pingApp[24] "ping out-of-order rate (%)" 0
scalar MeshLAN.host[0].pingApp[24] pingRxSeq:count 299
attr interpolationmode none
attr title "ping rx seq, count"
scalar MeshLAN.host[0].pingApp[24] pingTxSeq:count 299
attr interpolationmode none
attr title "ping tx seq, count"
scalar MeshLAN.host[0].pingApp[24] numOutOfOrderArrivals:last nan
attr interpolationmode none
attr title "ping out-of-order arrivals, last"
scalar MeshLAN.host[0].pingApp[24] numLost:last nan
attr interpolationmode none
attr title "pings lost, last"
scalar MeshLAN.host[0].pingApp[24] rtt:mean 0.00026435553749158
attr interpolationmode none
attr title "ping round-trip time, mean"
attr unit s
scalar MeshLAN.host[0].pingApp[25] "Pings sent" 388
scalar MeshLAN.host[0].pingApp[25] "ping loss rate (%)" 0
scalar MeshLAN.host[0].pingApp[25] "ping out-of-order rate (%)" 0
scalar MeshLAN.host[0].pingApp[25] pingRxSeq:count 299
attr interpolationmode none
attr title "ping rx seq, count"
scalar MeshLAN.host[0].pingApp[25] pingTxSeq:count 299
attr interpolationmode none
attr title "ping tx seq, count"
scalar MeshLAN.host[0].pingApp[25] numOutOfOrderArrivals:last nan
attr interpolationmode none
attr title "ping out-of-order arrivals, last"
scalar MeshLAN.host[0].pingApp[25] numLost:last nan
attr interpolationmode none
attr title "pings lost, last"
scalar MeshLAN.host[0].pingApp[25] rtt:mean 0.0004563296029697
attr interpolationmode none
attr title "ping round-trip time, mean"
attr unit s
scalar MeshLAN.host[0].pingApp[26] "Pings sent" 393
scalar MeshLAN.host[0].pingApp[26] "ping loss rate (%)" 0
scalar MeshLAN.host[0].pingApp[26] "ping out-of-order rate (%)" 0
scalar MeshLAN.host[0].pingApp[26] pingRxSeq:count 295
attr interpolationmode none
attr title "ping rx seq, count"
scalar MeshLAN.host[0].pingApp[26] pingTxSeq:count 295
attr interpolationmode none
attr title "ping tx seq, count"
scalar MeshLAN.host[0].pingApp[26] numOutOfOrderArrivals:last nan
attr interpolationmode none
attr title "ping out-of-order arrivals, last"
scalar MeshLAN.host[0].pingApp[26] numLost:last nan
attr interpolationmode none
attr title "pings lost, last"
scalar MeshLAN.host[0].pingApp[26] rtt:mean 0.00032077045651203
attr interpolationmode none
attr title "ping round-trip time, mean"
attr unit s
scalar MeshLAN.host[0].pingApp[27] "Pings sent" 396
scalar MeshLAN.host[0].pingApp[27] "ping loss rate (%)" 0
scalar MeshLAN.host[0].pingApp[27] "ping out-of-order rate (%)" 0
scalar MeshLAN.host[0].pingApp[27] pingRxSeq:count 293
attr interpolationmode none
attr title "ping rx seq, count"
scalar MeshLAN.host[0].pingApp[27] pingTxSeq:count 293
attr interpolationmode none
attr title "ping tx seq, count"
scalar MeshLAN.host[0].pingApp[27] numOutOfOrderArrivals:last nan
attr interpolationmode none
attr title "ping out-of-order arrivals, last"
scalar MeshLAN.host[0].pingApp[27] numLost:last nan
attr interpolationmode none
attr title "pings lost, last"
scalar MeshLAN.host[0].pingApp[27] rtt:mean 0.00029660929088699
attr interpolationmode none
attr title "ping round-trip time, mean"
attr unit s
scalar MeshLAN.host[0].pingApp[28] "Pings sent" 410
scalar MeshLAN.host[0].pingApp[28] "ping loss rate (%)" 0
scalar MeshLAN.host[0].pingApp[28] "ping out-of-order rate (%)" 0
scalar MeshLAN.host[0].pingApp[28] pingRxSeq:count 301
attr interpolationmode none
attr title "ping rx seq, count"
scalar MeshLAN.host[0].pingApp[28] pingTxSeq:count 301
attr interpolationmode none
attr title "ping tx seq, count"
scalar MeshLAN.host[0].pingApp[28] numOutOfOrderArrivals:last nan
attr interpolationmode none
attr title "ping out-of-order arrivals, last"
scalar MeshLAN.host[0].pingApp[28] numLost:last nan
attr interpolationmode none
attr title "pings lost, last"
scalar MeshLAN.host[0].pingApp[28] rtt:mean 0.00040125512387291
attr interpolationmode none
attr title "ping round-trip time, mean"
attr unit s
scalar MeshLAN.host[1].networkLayer.arp sentReply:count 0
attr title "ARP replies sent, count"
scalar MeshLAN.host[1].networkLayer.arp sentReq:count 0
attr title "ARP request sent, count"
scalar MeshLAN.host[1].networkLayer.arp failedARPResolution:count 0
attr title "ARP failed resolutions, count"
scalar MeshLAN.host[1].networkLayer.arp completedARPResolution:count 0
attr title "ARP completed resolutions, count"
scalar MeshLAN.host[1].networkLayer.arp initiatedARPResolution:count 0
attr title "ARP initiated resolutions, count"
scalar MeshLAN.host[1].lo0.lo droppedPkBitError:count 0
attr interpolationmode none
attr source dropPkBitError
attr title "packets dropped/bit error, count"
scalar MeshLAN.host[1].lo0.lo droppedPkBitError:sum(packetBytes) 0
attr interpolationmode none
attr source dropPkBitError
attr title "packets dropped/bit error, sum(packetBytes)"
scalar MeshLAN.host[1].lo0.lo rcvdPkFromHL:count 246
attr interpolationmode none
attr source packetReceivedFromUpper
attr title "packets received from higher layer, count"
scalar MeshLAN.host[1].lo0.lo rcvdPkFromHL:sum(packetBytes) 158788
attr interpolationmode none
attr source packetReceivedFromUpper
attr title "packets received from higher layer, sum(packetBytes)"
scalar MeshLAN.host[1].lo0.lo passedUpPk:count 246
attr interpolationmode none
attr source packetSentToUpper
attr title "packets passed to higher layer, count"
scalar MeshLAN.host[1].lo0.lo passedUpPk:sum(packetBytes) 158788
attr interpolationmode none
attr source packetSentToUpper
attr title "packets passed to higher layer, sum(packetBytes)"
scalar MeshLAN.host[1].eth[0].queue.pauseQueue queueLength:max nan
attr interpolationmode sample-hold
attr title "queue length, max"
scalar MeshLAN.host[1].eth[0].queue.pauseQueue queueLength:timeavg nan
attr interpolationmode sample-hold
attr title "queue length, timeavg"
statistic MeshLAN.host[1].eth[0].queue.pauseQueue queueingTime:histogram
field count 0
field mean nan
field stddev nan
field min nan
field max nan
field sum 0
field sqrsum 0
attr interpolationmode none
attr title "queueing time, histogram"
bin	-inf	0
bin	-0.5	0
bin	-0.46666666666667	0
bin	-0.43333333333333	0
bin	-0.4	0
bin	-0.36666666666667	0
bin	-0.33333333333333	0
bin	-0.3	0
bin	-0.26666666666667	0
bin	-0.23333333333333	0
bin	-0.2	0
bin	-0.16666666666667	0
bin	-0.13333333333333	0
bin	-0.1	0
bin	-0.066666666666667	0
bin	-0.033333333333333	0
bin	0	0
bin	0.033333333333333	0
bin	0.066666666666667	0
bin	0.1	0
bin	0.13333333333333	0
bin	0.16666666666667	0
bin	0.2	0
bin	0.23333333333333	0
bin	0.26666666666667	0
bin	0.3	0
bin	0.33333333333333	0
bin	0.36666666666667	0
bin	0.4	0
bin	0.43333333333333	0
bin	0.46666666666667	0
bin	0.5	0
scalar MeshLAN.host[1].eth[0].queue.pauseQueue dropPk:count 0
attr interpolationmode none
attr source dropPkByQueue
attr title "dropped packets, count"
scalar MeshLAN.host[1].eth[0].queue.pauseQueue dropPk:sum(packetBytes) 0
attr interpolationmode none
attr source dropPkByQueue
attr title "dropped packets, sum(packetBytes)"
scalar MeshLAN.host[1].eth[0].queue.pauseQueue rcvdPk:count 0
attr interpolationmode none
attr title "received packets, count"
scalar MeshLAN.host[1].eth[0].queue.pauseQueue rcvdPk:sum(packetBytes) 0
attr interpolationmode none
attr title "received packets, sum(packetBytes)"
scalar MeshLAN.host[1].eth[0].queue.dataQueue queueLength:max 5
attr interpolationmode sample-hold
attr title "queue length, max"
scalar MeshLAN.host[1].eth[0].queue.dataQueue queueLength:timeavg 0.029061727816103
attr interpolationmode sample-hold
attr title "queue length, timeavg"
statistic MeshLAN.host[1].eth[0].queue.dataQueue queueingTime:histogram
field count 13838
field mean 3.1501466844706e-005
field stddev 4.2607040020459e-005
field min 0
field max 0.000275245793
field sum 0.43591729819704
field sqrsum 3.8851168689391e-005
attr interpolationmode none
attr title "queueing time, histogram"
bin	-inf	0
bin	-4.232e-005	0
bin	-3.6677333333333e-005	0
bin	-3.1034666666667e-005	0
bin	-2.5392e-005	0
bin	-1.9749333333333e-005	0
bin	-1.4106666666667e-005	0
bin	-8.464e-006	0
bin	-2.8213333333333e-006	8678
bin	2.8213333333333e-006	21
bin	8.464e-006	27
bin	1.4106666666667e-005	39
bin	1.9749333333333e-005	30
bin	2.5392e-005	31
bin	3.1034666666667e-005	30
bin	3.6677333333333e-005	35
bin	4.232e-005	22
bin	4.7962666666667e-005	28
bin	5.3605333333333e-005	14
bin	5.9248e-005	22
bin	6.4890666666667e-005	11
bin	7.0533333333333e-005	9
bin	7.6176e-005	14
bin	8.1818666666667e-005	4509
bin	8.7461333333333e-005	23
bin	9.3104e-005	27
bin	9.8746666666667e-005	31
bin	0.00010438933333333	26
bin	0.000110032	16
bin	0.00011567466666667	24
bin	0.00012131733333333	18
bin	0.00012696	153
scalar MeshLAN.host[1].eth[0].queue.dataQueue dropPk:count 0
attr interpolationmode none
attr source dropPkByQueue
attr title "dropped packets, count"
scalar MeshLAN.host[1].eth[0].queue.dataQueue dropPk:sum(packetBytes) 0
attr interpolationmode none
attr source dropPkByQueue
attr title "dropped packets, sum(packetBytes)"
scalar MeshLAN.host[1].eth[0].queue.dataQueue rcvdPk:count 13838
attr interpolationmode none
attr title "received packets, count"
scalar MeshLAN.host[1].eth[0].queue.dataQueue rcvdPk:sum(packetBytes) 8993942
attr interpolationmode none
attr title "received packets, sum(packetBytes)"
scalar MeshLAN.host[1].eth[0].mac "simulated time" 20
scalar MeshLAN.host[1].eth[0].mac full-duplex 1
scalar MeshLAN.host[1].eth[0].mac "frames/sec sent" 910.95
scalar MeshLAN.host[1].eth[0].mac "frames/sec rcvd" 910.95
scalar MeshLAN.host[1].eth[0].mac "bits/sec sent" 4738474.4
scalar MeshLAN.host[1].eth[0].mac "bits/sec rcvd" 4738474.4
scalar MeshLAN.host[1].eth[0].mac "rx channel idle (%)" 95.2032248
scalar MeshLAN.host[1].eth[0].mac "rx channel utilization (%)" 4.7967752
scalar MeshLAN.host[1].eth[0].mac rxPkFromHL:count 13838
attr interpolationmode none
attr source rxPkFromHL
attr title "packet bytes from higher layer, count"
scalar MeshLAN.host[1].eth[0].mac rxPkFromHL:sum(packetBytes) 8993942
attr interpolationmode none
attr source rxPkFromHL
attr title "packet bytes from higher layer, sum(packetBytes)"
scalar MeshLAN.host[1].eth[0].mac rxPausePkUnits:count 0
attr interpolationmode none
attr title "pause units received, count"
scalar MeshLAN.host[1].eth[0].mac rxPausePkUnits:sum 0
attr interpolationmode none
attr title "pause units received, sum"
scalar MeshLAN.host[1].eth[0].mac txPausePkUnits:count 0
attr interpolationmode none
attr title "pause units sent, count"
scalar MeshLAN.host[1].eth[0].mac txPausePkUnits:sum 0
attr interpolationmode none
attr title "pause units sent, sum"
scalar MeshLAN.host[1].eth[0].mac txPk:count 13837
attr interpolationmode none
attr source txPk
attr title "packets transmitted, count"
scalar MeshLAN.host[1].eth[0].mac txPk:sum(packetBytes) 8993617
attr interpolationmode none
attr source txPk
attr title "packets transmitted, sum(packetBytes)"
scalar MeshLAN.host[1].eth[0].mac droppedPkNotForUs:count 0
attr interpolationmode none
attr source dropPkNotForUs
attr title "packets dropped/not for us, count"
scalar MeshLAN.host[1].eth[0].mac droppedPkNotForUs:sum(packetBytes) 0
attr interpolationmode none
attr source dropPkNotForUs
attr title "packets dropped/not for us, sum(packetBytes)"
scalar MeshLAN.host[1].eth[0].mac droppedPkBitError:count 0
attr interpolationmode none
attr source dropPkBitError
attr title "packets dropped/bit error, count"
scalar MeshLAN.host[1].eth[0].mac droppedPkBitError:sum(packetBytes) 0
attr interpolationmode none
attr source dropPkBitError
attr title "packets dropped/bit error, sum(packetBytes)"
scalar MeshLAN.host[1].eth[0].mac droppedPkIfaceDown:count 0
attr interpolationmode none
attr source dropPkIfaceDown
attr title "packets dropped/interface down, count"
scalar MeshLAN.host[1].eth[0].mac droppedPkIfaceDown:sum(packetBytes) 0
attr interpolationmode none
attr source dropPkIfaceDown
attr title "packets dropped/interface down, sum(packetBytes)"
scalar MeshLAN.host[1].eth[0].mac rxPkOk:count 13837
attr interpolationmode none
attr source rxPkOk
attr title "packets received OK, count"
scalar MeshLAN.host[1].eth[0].mac rxPkOk:sum(packetBytes) 8993617
attr interpolationmode none
attr source rxPkOk
attr title "packets received OK, sum(packetBytes)"
scalar MeshLAN.host[1].eth[0].mac passedUpPk:count 13837
attr interpolationmode none
attr source packetSentToUpper
attr title "packets passed to higher layer, count"
scalar MeshLAN.host[1].eth[0].mac passedUpPk:sum(packetBytes) 8993617
attr interpolationmode none
attr source packetSentToUpper
attr title "packets passed to higher layer, sum(packetBytes)"
scalar MeshLAN.host[1].eth[0].encap pauseSent:count 0
attr title "pause sent, count"
scalar MeshLAN.host[1].eth[0].encap pauseSent:sum 0
attr title "pause sent, sum"
scalar MeshLAN.host[1].eth[0].encap decapPk:count 13837
attr interpolationmode none
attr source decapPk
attr title "packets decapsulated, count"
scalar MeshLAN.host[1].eth[0].encap decapPk:sum(packetBytes) 8742908
attr interpolationmode none
attr source decapPk
attr title "packets decapsulated, sum(packetBytes)"
scalar MeshLAN.host[1].eth[0].encap encapPk:count 13838
attr interpolationmode none
attr source encapPk
attr title "packets encapsulated, count"
scalar MeshLAN.host[1].eth[0].encap encapPk:sum(packetBytes) 8743215
attr interpolationmode none
attr source encapPk
attr title "packets encapsulated, sum(packetBytes)"
scalar MeshLAN.host[1].pingApp[0] "Pings sent" 376
scalar MeshLAN.host[1].pingApp[0] "ping loss rate (%)" 0
scalar MeshLAN.host[1].pingApp[0] "ping out-of-order rate (%)" 0
scalar MeshLAN.host[1].pingApp[0] pingRxSeq:count 285
attr interpolationmode none
attr title "ping rx seq, count"
scalar MeshLAN.host[1].pingApp[0] pingTxSeq:count 285
attr interpolationmode none
attr title "ping tx seq, count"
scalar MeshLAN.host[1].pingApp[0] numOutOfOrderArrivals:last nan
attr interpolationmode none
attr title "ping out-of-order arrivals, last"
scalar MeshLAN.host[1].pingApp[0] numLost:last nan
attr interpolationmode none
attr title "pings lost, last"
scalar MeshLAN.host[1].pingApp[0] rtt:mean 0.0003669984763662
attr interpolationmode none
attr title "ping round-trip time, mean"
attr unit s
scalar MeshLAN.host[1].pingApp[1] "Pings sent" 383
scalar MeshLAN.host[1].pingApp[1] "ping loss rate (%)" 0
scalar MeshLAN.host[1].pingApp[1] "ping out-of-order rate (%)" 0
scalar MeshLAN.host[1].pingApp[1] pingRxSeq:count 288
attr interpolationmode none
attr title "ping rx seq, count"
scalar MeshLAN.host[1].pingApp[1] pingTxSeq:count 288
attr interpolationmode none
attr title "ping tx seq, count"
scalar MeshLAN.host[1].pingApp[1] numOutOfOrderArrivals:last nan
attr interpolationmode none
attr title "ping out-of-order arrivals, last"
scalar MeshLAN.host[1].pingApp[1] numLost:last nan
attr interpolationmode none
attr title "pings lost, last"
scalar MeshLAN.host[1].pingApp[1] rtt:mean 0.00042730269179152
attr interpolationmode none
attr title "ping round-trip time, mean"
attr unit s
scalar MeshLAN.host[1].pingApp[2] "Pings sent" 378
scalar MeshLAN.host[1].pingApp[2] "ping loss rate (%)" 0
scalar MeshLAN.host[1].pingApp[2] "ping out-of-order rate (%)" 0
scalar MeshLAN.host[1].pingApp[2] pingRxSeq:count 292
attr interpolationmode none
attr title "ping rx seq, count"
scalar MeshLAN.host[1].pingApp[2] pingTxSeq:count 292
attr interpolationmode none
attr title "ping tx seq, count"
scalar MeshLAN.host[1].pingApp[2] numOutOfOrderArrivals:last nan
attr interpolationmode none
attr title "ping out-of-order arrivals, last"
scalar MeshLAN.host[1].pingApp[2] numLost:last nan
attr interpolationmode none
attr title "pings lost, last"
scalar MeshLAN.host[1].pingApp[2] rtt:mean 0.00018645373566897
attr interpolationmode none
attr title "ping round-trip time, mean"
attr unit s
scalar MeshLAN.host[1].pingApp[3] "Pings sent" 394
scalar MeshLAN.host[1].pingApp[3] "ping loss rate (%)" 0
scalar MeshLAN.host[1].pingApp[3] "ping out-of-order rate (%)" 0
scalar MeshLAN.host[1].pingApp[3] pingRxSeq:count 301
attr interpolationmode none
attr title "ping rx seq, count"
scalar MeshLAN.host[1].pingApp[3] pingTxSeq:count 301
attr interpolationmode none
attr title "ping tx seq, count"
scalar MeshLAN.host[1].pingApp[3] numOutOfOrderArrivals:last nan
attr interpolationmode none
attr title "ping out-of-order arrivals, last"
scalar MeshLAN.host[1].pingApp[3] numLost:last nan
attr interpolationmode none
attr title "pings lost, last"
scalar MeshLAN.host[1].pingApp[3] rtt:mean 0.00045347302361409
attr interpolationmode none
attr title "ping round-trip time, mean"
attr unit s
scalar MeshLAN.host[1].pingApp[4] "Pings sent" 382
scalar MeshLAN.host[1].pingApp[4] "ping loss rate (%)" 0
scalar MeshLAN.host[1].pingApp[4] "ping out-of-order rate (%)" 0
scalar MeshLAN.host[1].pingApp[4] pingRxSeq:count 288
attr interpolationmode none
attr title "ping rx seq, count"
scalar MeshLAN.host[1].pingApp[4] pingTxSeq:count 288
attr interpolationmode none
attr title "ping tx seq, count"
scalar MeshLAN.host[1].pingApp[4] numOutOfOrderArrivals:last nan
attr interpolationmode none
attr title "ping out-of-order arrivals, last"
scalar MeshLAN.host[1].pingApp[4] numLost:last nan
attr interpolationmode none
attr title "pings lost, last"
scalar MeshLAN.host[1].pingApp[4] rtt:mean 0.0003793759435493
attr interpolationmode none
attr title "ping round-trip time, mean"
attr unit s
scalar MeshLAN.host[1].pingApp[5] "Pings sent" 384
scalar MeshLAN.host[1].pingApp[5] "ping loss rate (%)" 0
scalar MeshLAN.host[1].pingApp[5] "ping out-of-order rate (%)" 0
scalar MeshLAN.host[1].pingApp[5] pingRxSeq:count 293
attr interpolationmode none
attr title "ping rx seq, count"
scalar MeshLAN.host[1].pingApp[5] pingTxSeq:count 293
attr interpolationmode none
attr title "ping tx seq, count"
scalar MeshLAN.host[1].pingApp[5] numOutOfOrderArrivals:last nan
attr interpolationmode none
attr title "ping out-of-order arrivals, last"
scalar MeshLAN.host[1].pingApp[5] numLost:last nan
attr interpolationmode none
attr title "pings lost, last"
scalar MeshLAN.host[1].pingApp[5] rtt:mean 0.00042803050044673
attr interpolationmode none
attr title "ping round-trip time, mean"
attr unit s
scalar MeshLAN.host[1].pingApp[6] "Pings sent" 381
scalar MeshLAN.host[1].pingApp[6] "ping loss rate (%)" 0
scalar MeshLAN.host[1].pingApp[6] "ping out-of-order rate (%)" 0
scalar MeshLAN.host[1].pingApp[6] pingRxSeq:count 285
attr interpolationmode none
attr title "ping rx seq, count"
scalar MeshLAN.host[1].pingApp[6] pingTxSeq:count 285
attr interpolationmode none
attr title "ping tx seq, count"
scalar MeshLAN.host[1].pingApp[6] numOutOfOrderArrivals:last nan
attr interpolationmode none
attr title "ping out-of-order arrivals, last"
scalar MeshLAN.host[1].pingApp[6] numLost:last nan
attr interpolationmode none
attr title "pings lost, last"
scalar MeshLAN.host[1].pingApp[6] rtt:mean 0.00038311492940282
attr interpolationmode none
attr title "ping round-trip time, mean"
attr unit s
scalar MeshLAN.host[1].pingApp[7] "Pings sent" 373
scalar MeshLAN.host[1].pingApp[7] "ping loss rate (%)" 0
scalar MeshLAN.host[1].pingApp[7] "ping out-of-order rate (%)" 0
scalar MeshLAN.host[1].pingApp[7] pingRxSeq:count 277
attr interpolationmode none
attr title "ping rx seq, count"
scalar MeshLAN.host[1].pingApp[7] pingTxSeq:count 277
attr interpolationmode none
attr title "ping tx seq, count"
scalar MeshLAN.host[1].pingApp[7] numOutOfOrderArrivals:last nan
attr interpolationmode none
attr title "ping out-of-order arrivals, last"
scalar MeshLAN.host[1].pingApp[7] numLost:last nan
attr interpolationmode none
attr title "pings lost, last"
scalar MeshLAN.host[1].pingApp[7] rtt:mean 0.00019456143861232
attr interpolationmode none
attr title "ping round-trip time, mean"
attr unit s
scalar MeshLAN.host[1].pingApp[8] "Pings sent" 392
scalar MeshLAN.host[1].pingApp[8] "ping loss rate (%)" 0
scalar MeshLAN.host[1].pingApp[8] "ping out-of-order rate (%)" 0
scalar MeshLAN.host[1].pingApp[8] pingRxSeq:count 298
attr interpolationmode none
attr title "ping rx seq, count"
scalar MeshLAN.host[1].pingApp[8] pingTxSeq:count 298
attr interpolationmode none
attr title "ping tx seq, count"
scalar MeshLAN.host[1].pingApp[8] numOutOfOrderArrivals:last nan
attr interpolationmode none
attr title "ping out-of-order arrivals, last"
scalar MeshLAN.host[1].pingApp[8] numLost:last nan
attr interpolationmode none
attr title "pings lost, last"
scalar MeshLAN.host[1].pingApp[8] rtt:mean 0.00010794231892617
attr interpolationmode none
attr title "ping round-trip time, mean"
attr unit s
scalar MeshLAN.host[1].pingApp[9] "Pings sent" 386
scalar MeshLAN.host[1].pingApp[9] "ping loss rate (%)" 0
scalar MeshLAN.host[1].pingApp[9] "ping out-of-order rate (%)" 0
scalar MeshLAN.host[1].pingApp[9] pingRxSeq:count 293
attr interpolationmode none
attr title "ping rx seq, count"
scalar MeshLAN.host[1].pingApp[9] pingTxSeq:count 293
attr interpolationmode none
attr title "ping tx seq, count"
scalar MeshLAN.host[1].pingApp[9] numOutOfOrderArrivals:last nan
attr interpolationmode none
attr title "ping out-of-order arrivals, last"
scalar MeshLAN.host[1].pingApp[9] numLost:last nan
attr interpolationmode none
attr title "pings lost, last"
scalar MeshLAN.host[1].pingApp[9] rtt:mean 0.00017216493969863
attr interpolationmode none
attr title "ping round-trip time, mean"
attr unit s
scalar MeshLAN.host[1].pingApp[10] "Pings sent" 382
scalar MeshLAN.host[1].pingApp[10] "ping loss rate (%)" 0
scalar MeshLAN.host[1].pingApp[10] "ping out-of-order rate (%)" 0
scalar MeshLAN.host[1].pingApp[10] pingRxSeq:count 291
attr interpolationmode none
attr title "ping rx seq, count"
scalar MeshLAN.host[1].pingApp[10] pingTxSeq:count 291
attr interpolationmode none
attr title "ping tx seq, count"
scalar MeshLAN.host[1].pingApp[10] numOutOfOrderArrivals:last nan
attr interpolationmode none
attr title "ping out-of-order arrivals, last"
scalar MeshLAN.host[1].pingApp[10] numLost:last nan
attr interpolationmode none
attr title "pings lost, last"
scalar MeshLAN.host[1].pingApp[10] rtt:mean 0.00021962464822378
attr interpolationmode none
attr title "ping round-trip time, mean"
attr unit s
scalar MeshLAN.host[1].pingApp[11] "Pings sent" 387
scalar MeshLAN.host[1].pingApp[11] "ping loss rate (%)" 0
scalar MeshLAN.host[1].pingApp[11] "ping out-of-order rate (%)" 0
scalar MeshLAN.host[1].pingApp[11] pingRxSeq:count 301
attr interpolationmode none
attr title "ping rx seq, count"
scalar MeshLAN.host[1].pingApp[11] pingTxSeq:count 301
attr interpolationmode none
attr title "ping tx seq, count"
scalar MeshLAN.host[1].pingApp[11] numOutOfOrderArrivals:last nan
attr interpolationmode none
attr title "ping out-of-order arrivals, last"
scalar MeshLAN.host[1].pingApp[11] numLost:last nan
attr interpolationmode none
attr title "pings lost, last"
scalar MeshLAN.host[1].pingApp[11] rtt:mean 0.00018736243945051
attr interpolationmode none
attr title "ping round-trip time, mean"
attr unit s
scalar MeshLAN.host[1].pingApp[12] "Pings sent" 373
scalar MeshLAN.host[1].pingApp[12] "ping loss rate (%)" 0
scalar MeshLAN.host[1].pingApp[12] "ping out-of-order rate (%)" 0
scalar MeshLAN.host[1].pingApp[12] pingRxSeq:count 286
attr interpolationmode none
attr title "ping rx seq, count"
scalar MeshLAN.host[1].pingApp[12] pingTxSeq:count 286
attr interpolationmode none
attr title "ping tx seq, count"
scalar MeshLAN.host[1].pingApp[12] numOutOfOrderArrivals:last nan
attr interpolationmode none
attr title "ping out-of-order arrivals, last"
scalar MeshLAN.host[1].pingApp[12] numLost:last nan
attr interpolationmode none
attr title "pings lost, last"
scalar MeshLAN.host[1].pingApp[12] rtt:mean 0.00027557717741259
attr interpolationmode none
attr title "ping round-trip time, mean"
attr unit s
scalar MeshLAN.host[1].pingApp[13] "Pings sent" 376
scalar MeshLAN.host[1].pingApp[13] "ping loss rate (%)" 0
scalar MeshLAN.host[1].pingApp[13] "ping out-of-order rate (%)" 0
scalar MeshLAN.host[1].pingApp[13] pingRxSeq:count 289
attr interpolationmode none
attr title "ping rx seq, count"
scalar MeshLAN.host[1].pingApp[13] pingTxSeq:count 289
attr interpolationmode none
attr title "ping tx seq, count"
scalar MeshLAN.host[1].pingApp[13] numOutOfOrderArrivals:last nan
attr interpolationmode none
attr title "ping out-of-order arrivals, last"
scalar MeshLAN.host[1].pingApp[13] numLost:last nan
attr interpolationmode none
attr title "pings lost, last"
scalar MeshLAN.host[1].pingApp[13] rtt:mean 0.00042616759486851
attr interpolationmode none
attr title "ping round-trip time, mean"
attr unit s
scalar MeshLAN.host[1].pingApp[14] "Pings sent" 385
scalar MeshLAN.host[1].pingApp[14] "ping loss rate (%)" 0
scalar MeshLAN.host[1].pingApp[14] "ping out-of-order rate (%)" 0
scalar MeshLAN.host[1].pingApp[14] pingRxSeq:count 287
attr interpolationmode none
attr title "ping rx seq, count"
scalar MeshLAN.host[1].pingApp[14] pingTxSeq:count 287
attr interpolationmode none
attr title "ping tx seq, count"
scalar MeshLAN.host[1].pingApp[14] numOutOfOrderArrivals:last nan
attr interpolationmode none
attr title "ping out-of-order arrivals, last"
scalar MeshLAN.host[1].pingApp[14] numLost:last nan
attr interpolationmode none
attr title "pings lost, last"
scalar MeshLAN.host[1].pingApp[14] rtt:mean 0.00010925023545296
attr interpolationmode none
attr title "ping round-trip time, mean"
attr unit s
scalar MeshLAN.host[1].pingApp[15] "Pings sent" 388
scalar MeshLAN.host[1].pingApp[15] "ping loss rate (%)" 0
scalar MeshLAN.host[1].pingApp[15] "ping out-of-order rate (%)" 0
scalar MeshLAN.host[1].pingApp[15] pingRxSeq:count 300
attr interpolationmode none
attr title "ping rx seq, count"
scalar MeshLAN.host[1].pingApp[15] pingTxSeq:count 300
attr interpolationmode none
attr title "ping tx seq, count"
scalar MeshLAN.host[1].pingApp[15] numOutOfOrderArrivals:last nan
attr interpolationmode none
attr title "ping out-of-order arrivals, last"
scalar MeshLAN.host[1].pingApp[15] numLost:last nan
attr interpolationmode none
attr title "pings lost, last"
scalar MeshLAN.host[1].pingApp[15] rtt:mean 0.0003657862030303
attr interpolationmode none
attr title "ping round-trip time, mean"
attr unit s
scalar MeshLAN.host[1].pingApp[16] "Pings sent" 381
scalar MeshLAN.host[1].pingApp[16] "ping loss rate (%)" 0
scalar MeshLAN.host[1].pingApp[16] "ping out-of-order rate (%)" 0
scalar MeshLAN.host[1].pingApp[16] pingRxSeq:count 292
attr interpolationmode none
attr title "ping rx seq, count"
scalar MeshLAN.host[1].pingApp[16] pingTxSeq:count 292
attr interpolationmode none
attr title "ping tx seq, count"
scalar MeshLAN.host[1].pingApp[16] numOutOfOrderArrivals:last nan
attr interpolationmode none
attr title "ping out-of-order arrivals, last"
scalar MeshLAN.host[1].pingApp[16] numLost:last nan
attr interpolationmode none
attr title "pings lost, last"
scalar MeshLAN.host[1].pingApp[16] rtt:mean 0.00024645301436458
attr interpolationmode none
attr title "ping round-trip time, mean"
attr unit s
scalar MeshLAN.host[1].pingApp[17] "Pings sent" 393
scalar MeshLAN.host[1].pingApp[17] "ping loss rate (%)" 0
scalar MeshLAN.host[1].pingApp[17] "ping out-of-order rate (%)" 0
scalar MeshLAN.host[1].pingApp[17] pingRxSeq:count 298
attr interpolationmode none
attr title "ping rx seq, count"
scalar MeshLAN.host[1].pingApp[17] pingTxSeq:count 298
attr interpolationmode none
attr title "ping tx seq, count"
scalar MeshLAN.host[1].pingApp[17] numOutOfOrderArrivals:last nan
attr interpolationmode none
attr title "ping out-of-order arrivals, last"
scalar MeshLAN.host[1].pingApp[17] numLost:last nan
attr interpolationmode none
attr title "pings lost, last"
scalar MeshLAN.host[1].pingApp[17] rtt:mean 0.00023238222500683
attr interpolationmode none
attr title "ping round-trip time, mean"
attr unit s
scalar MeshLAN.host[1].pingApp[18] "Pings sent" 378
scalar MeshLAN.host[1].pingApp[18] "ping loss rate (%)" 0
scalar MeshLAN.host[1].pingApp[18] "ping out-of-order rate (%)" 0
scalar MeshLAN.host[1].pingApp[18] pingRxSeq:count 288
attr interpolationmode none
attr title "ping rx seq, count"
scalar MeshLAN.host[1].pingApp[18] pingTxSeq:count 288
attr interpolationmode none
attr title "ping tx seq, count"
scalar MeshLAN.host[1].pingApp[18] numOutOfOrderArrivals:last nan
attr interpolationmode none
attr title "ping out-of-order arrivals, last"
scalar MeshLAN.host[1].pingApp[18] numLost:last nan
attr interpolationmode none
attr title "pings lost, last"
scalar MeshLAN.host[1].pingApp[18] rtt:mean 0.00037537507782867
attr interpolationmode none
attr title "ping round-trip time, mean"
attr unit s
scalar MeshLAN.host[1].pingApp[19] "Pings sent" 398
scalar MeshLAN.host[1].pingApp[19] "ping loss rate (%)" 0
scalar MeshLAN.host[1].pingApp[19] "ping out-of-order rate (%)" 0
scalar MeshLAN.host[1].pingApp[19] pingRxSeq:count 305
attr interpolationmode none
attr title "ping rx seq, count"
scalar MeshLAN.host[1].pingApp[19] pingTxSeq:count 305
attr interpolationmode none
attr title "ping tx seq, count"
scalar MeshLAN.host[1].pingApp[19] numOutOfOrderArrivals:last nan
attr interpolationmode none
attr title "ping out-of-order arrivals, last"
scalar MeshLAN.host[1].pingApp[19] numLost:last nan
attr interpolationmode none
attr title "pings lost, last"
scalar MeshLAN.host[1].pingApp[19] rtt:mean 0.0003534997732953
attr interpolationmode none
attr title "ping round-trip time, mean"
attr unit s
scalar MeshLAN.host[1].pingApp[20] "Pings sent" 388
scalar MeshLAN.host[1].pingApp[20] "ping loss rate (%)" 0
scalar MeshLAN.host[1].pingApp[20] "ping out-of-order rate (%)" 0
scalar MeshLAN.host[1].pingApp[20] pingRxSeq:count 293
attr interpolationmode none
attr title "ping rx seq, count"
scalar MeshLAN.host[1].pingApp[20] pingTxSeq:count 293
attr interpolationmode none
attr title "ping tx seq, count"
scalar MeshLAN.host[1].pingApp[20] numOutOfOrderArrivals:last nan
attr interpolationmode none
attr title "ping out-of-order arrivals, last"
scalar MeshLAN.host[1].pingApp[20] numLost:last nan
attr interpolationmode none
attr title "pings lost, last"
scalar MeshLAN.host[1].pingApp[20] rtt:mean 0.00022127578735417
attr interpolationmode none
attr title "ping round-trip time, mean"
attr unit s
scalar MeshLAN.host[1].pingApp[21] "Pings sent" 388
scalar MeshLAN.host[1].pingApp[21] "ping loss rate (%)" 0
scalar MeshLAN.host[1].pingApp[21] "ping out-of-order rate (%)" 0
scalar MeshLAN.host[1].pingApp[21] pingRxSeq:count 292
attr interpolationmode none
attr title "ping rx seq, count"
scalar MeshLAN.host[1].pingApp[21] pingTxSeq:count 292
attr interpolationmode none
attr title "ping tx seq, count"
scalar MeshLAN.host[1].pingApp[21] numOutOfOrderArrivals:last nan
attr interpolationmode none
attr title "ping out-of-order arrivals, last"
scalar MeshLAN.host[1].pingApp[21] numLost:last nan
attr interpolationmode none
attr title "pings lost, last"
scalar MeshLAN.host[1].pingApp[21] rtt:mean 0.0002564466456609
attr interpolationmode none
attr title "ping round-trip time, mean"
attr unit s
scalar MeshLAN.host[1].pingApp[22] "Pings sent" 392
scalar MeshLAN.host[1].pingApp[22] "ping loss rate (%)" 0
scalar MeshLAN.host[1].pingApp[22] "ping out-of-order rate (%)" 0
scalar MeshLAN.host[1].pingApp[22] pingRxSeq:count 294
attr interpolationmode none
attr title "ping rx seq, count"
scalar MeshLAN.host[1].pingApp[22] pingTxSeq:count 294
attr interpolationmode none
attr title "ping tx seq, count"
scalar MeshLAN.host[1].pingApp[22] numOutOfOrderArrivals:last nan
attr interpolationmode none
attr title "ping out-of-order arrivals, last"
scalar MeshLAN.host[1].pingApp[22] numLost:last nan
attr interpolationmode none
attr title "pings lost, last"
scalar MeshLAN.host[1].pingApp[22] rtt:mean 0.00036971509841724
attr interpolationmode none
attr title "ping round-trip time, mean"
attr unit s
scalar MeshLAN.host[1].pingApp[23] "Pings sent" 382
scalar MeshLAN.host[1].pingApp[23] "ping loss rate (%)" 0
scalar MeshLAN.host[1].pingApp[23] "ping out-of-order rate (%)" 0
scalar MeshLAN.host[1].pingApp[23] pingRxSeq:count 287
attr interpolationmode none
attr title "ping rx seq, count"
scalar MeshLAN.host[1].pingApp[23] pingTxSeq:count 287
attr interpolationmode none
attr title "ping tx seq, count"
scalar MeshLAN.host[1].pingApp[23] numOutOfOrderArrivals:last nan
attr interpolationmode none
attr title "ping out-of-order arrivals, last"
scalar MeshLAN.host[1].pingApp[23] numLost:last nan
attr interpolationmode none
attr title "pings lost, last"
scalar MeshLAN.host[1].pingApp[23] rtt:mean 0.00035743285495454
attr interpolationmode none
attr title "ping round-trip time, mean"
attr unit s
scalar MeshLAN.host[1].pingApp[24] "Pings sent" 370
scalar MeshLAN.host[1].pingApp[24] "ping loss rate (%)" 0.27027027027027
scalar MeshLAN.host[1].pingApp[24] "ping out-of-order rate (%)" 0
scalar MeshLAN.host[1].pingApp[24] pingRxSeq:count 286
attr interpolationmode none
attr title "ping rx seq, count"
scalar MeshLAN.host[1].pingApp[24] pingTxSeq:count 287
attr interpolationmode none
attr title "ping tx seq, count"
scalar MeshLAN.host[1].pingApp[24] numOutOfOrderArrivals:last nan
attr interpolationmode none
attr title "ping out-of-order arrivals, last"
scalar MeshLAN.host[1].pingApp[24] numLost:last nan
attr interpolationmode none
attr title "pings lost, last"
scalar MeshLAN.host[1].pingApp[24] rtt:mean 0.00011479862997193
attr interpolationmode none
attr title "ping round-trip time, mean"
attr unit s
scalar MeshLAN.host[1].pingApp[25] "Pings sent" 385
scalar MeshLAN.host[1].pingApp[25] "ping loss rate (%)" 0
scalar MeshLAN.host[1].pingApp[25] "ping out-of-order rate (%)" 0
scalar MeshLAN.host[1].pingApp[25] pingRxSeq:count 296
attr interpolationmode none
attr title "ping rx seq, count"
scalar MeshLAN.host[1].pingApp[25] pingTxSeq:count 296
attr interpolationmode none
attr title "ping tx seq, count"
scalar MeshLAN.host[1].pingApp[25] numOutOfOrderArrivals:last nan
attr interpolationmode none
attr title "ping out-of-order arrivals, last"
scalar MeshLAN.host[1].pingApp[25] numLost:last nan
attr interpolationmode none
attr title "pings lost, last"
scalar MeshLAN.host[1].pingApp[25] rtt:mean 0.00025049204388095
attr interpolationmode none
attr title "ping round-trip time, mean"
attr unit s
scalar MeshLAN.host[1].pingApp[26] "Pings sent" 384
scalar MeshLAN.host[1].pingApp[26] "ping loss rate (%)" 0
scalar MeshLAN.host[1].pingApp[26] "ping out-of-order rate (%)" 0
scalar MeshLAN.host[1].pingApp[26] pingRxSeq:count 278
attr interpolationmode none
attr title "ping rx seq, count"
scalar MeshLAN.host[1].pingApp[26] pingTxSeq:count 278
attr interpolationmode none
attr title "ping tx seq, count"
scalar MeshLAN.host[1].pingApp[26] numOutOfOrderArrivals:last nan
attr interpolationmode none
attr title "ping out-of-order arrivals, last"
scalar MeshLAN.host[1].pingApp[26] numLost:last nan
attr interpolationmode none
attr title "pings lost, last"
scalar MeshLAN.host[1].pingApp[26] rtt:mean 0.00041633841631752
attr interpolationmode none
attr title "ping round-trip time, mean"
attr unit s
scalar MeshLAN.host[1].pingApp[27] "Pings sent" 408
scalar MeshLAN.host[1].pingApp[27] "ping loss rate (%)" 0
scalar MeshLAN.host[1].pingApp[27] "ping out-of-order rate (%)" 0
scalar MeshLAN.host[1].pingApp[27] pingRxSeq:count 308
attr interpolationmode none
attr title "ping rx seq, count"
scalar MeshLAN.host[1].pingApp[27] pingTxSeq:count 308
attr interpolationmode none
attr title "ping tx seq, count"
scalar MeshLAN.host[1].pingApp[27] numOutOfOrderArrivals:last nan
attr interpolationmode none
attr title "ping out-of-order arrivals, last"
scalar MeshLAN.host[1].pingApp[27] numLost:last nan
attr interpolationmode none
attr title "pings lost, last"
scalar MeshLAN.host[1].pingApp[27] rtt:mean 0.00035348571296743
attr interpolationmode none
attr title "ping round-trip time, mean"
attr unit s
scalar MeshLAN.host[1].pingApp[28] "Pings sent" 385
scalar MeshLAN.host[1].pingApp[28] "ping loss rate (%)" 0
scalar MeshLAN.host[1].pingApp[28] "ping out-of-order rate (%)" 0
scalar MeshLAN.host[1].pingApp[28] pingRxSeq:count 297
attr interpolationmode none
attr title "ping rx seq, count"
scalar MeshLAN.host[1].pingApp[28] pingTxSeq:count 297
attr interpolationmode none
attr title "ping tx seq, count"
scalar MeshLAN.host[1].pingApp[28] numOutOfOrderArrivals:last nan
attr interpolationmode none
attr title "ping out-of-order arrivals, last"
scalar MeshLAN.host[1].pingApp[28] numLost:last nan
attr interpolationmode none
attr title "pings lost, last"
scalar MeshLAN.host[1].pingApp[28] rtt:mean 0.00039078197982594
attr interpolationmode none
attr title "ping round-trip time, mean"
attr unit s
scalar MeshLAN.host[2].networkLayer.arp sentReply:count 0
attr title "ARP replies sent, count"
scalar MeshLAN.host[2].networkLayer.arp sentReq:count 0
attr title "ARP request sent, count"
scalar MeshLAN.host[2].networkLayer.arp failedARPResolution:count 0
attr title "ARP failed resolutions, count"
scalar MeshLAN.host[2].networkLayer.arp completedARPResolution:count 0
attr title "ARP completed resolutions, count"
scalar MeshLAN.host[2].networkLayer.arp initiatedARPResolution:count 0
attr title "ARP initiated resolutions, count"
scalar MeshLAN.host[2].lo0.lo droppedPkBitError:count 0
attr interpolationmode none
attr source dropPkBitError
attr title "packets dropped/bit error, count"
scalar MeshLAN.host[2].lo0.lo droppedPkBitError:sum(packetBytes) 0
attr interpolationmode none
attr source dropPkBitError
attr title "packets dropped/bit error, sum(packetBytes)"
scalar MeshLAN.host[2].lo0.lo rcvdPkFromHL:count 272
attr interpolationmode none
attr source packetReceivedFromUpper
attr title "packets received from higher layer, count"
scalar MeshLAN.host[2].lo0.lo rcvdPkFromHL:sum(packetBytes) 190168
attr interpolationmode none
attr source packetReceivedFromUpper
attr title "packets received from higher layer, sum(packetBytes)"
scalar MeshLAN.host[2].lo0.lo passedUpPk:count 272
attr interpolationmode none
attr source packetSentToUpper
attr title "packets passed to higher layer, count"
scalar MeshLAN.host[2].lo0.lo passedUpPk:sum(packetBytes) 190168
attr interpolationmode none
attr source packetSentToUpper
attr title "packets passed to higher layer, sum(packetBytes)"
scalar MeshLAN.host[2].eth[0].queue.pauseQueue queueLength:max nan
attr interpolationmode sample-hold
attr title "queue length, max"
scalar MeshLAN.host[2].eth[0].queue.pauseQueue queueLength:timeavg nan
attr interpolationmode sample-hold
attr title "queue length, timeavg"
statistic MeshLAN.host[2].eth[0].queue.pauseQueue queueingTime:histogram
field count 0
field mean nan
field stddev nan
field min nan
field max nan
field sum 0
field sqrsum 0
attr interpolationmode none
attr title "queueing time, histogram"
bin	-inf	0
bin	-0.5	0
bin	-0.46666666666667	0
bin	-0.43333333333333	0
bin	-0.4	0
bin	-0.36666666666667	0
bin	-0.33333333333333	0
bin	-0.3	0
bin	-0.26666666666667	0
bin	-0.23333333333333	0
bin	-0.2	0
bin	-0.16666666666667	0
bin	-0.13333333333333	0
bin	-0.1	0
bin	-0.066666666666667	0
bin	-0.033333333333333	0
bin	0	0
bin	0.033333333333333	0
bin	0.066666666666667	0
bin	0.1	0
bin	0.13333333333333	0
bin	0.16666666666667	0
bin	0.2	0
bin	0.23333333333333	0
bin	0.26666666666667	0
bin	0.3	0
bin	0.33333333333333	0
bin	0.36666666666667	0
bin	0.4	0
bin	0.43333333333333	0
bin	0.46666666666667	0
bin	0.5	0
scalar MeshLAN.host[2].eth[0].queue.pauseQueue dropPk:count 0
attr interpolationmode none
attr source dropPkByQueue
attr title "dropped packets, count"
scalar MeshLAN.host[2].eth[0].queue.pauseQueue dropPk:sum(packetBytes) 0
attr interpolationmode none
attr source dropPkByQueue
attr title "dropped packets, sum(packetBytes)"
scalar MeshLAN.host[2].eth[0].queue.pauseQueue rcvdPk:count 0
attr interpolationmode none
attr title "received packets, count"
scalar MeshLAN.host[2].eth[0].queue.pauseQueue rcvdPk:sum(packetBytes) 0
attr interpolationmode none
attr title "received packets, sum(packetBytes)"
scalar MeshLAN.host[2].eth[0].queue.dataQueue queueLength:max 5
attr interpolationmode sample-hold
attr title "queue length, max"
scalar MeshLAN.host[2].eth[0].queue.dataQueue queueLength:timeavg 0.032528928228927
attr interpolationmode sample-hold
attr title "queue length, timeavg"
statistic MeshLAN.host[2].eth[0].queue.dataQueue queueingTime:histogram
field count 14112
field mean 3.457463780811e-005
field stddev 4.7974753617688e-005
field min 0
field max 0.000298387796
field sum 0.48791728874804
field sqrsum 4.9347116369567e-005
attr interpolationmode none
attr title "queueing time, histogram"
bin	-inf	0
bin	-0.0001397980355	0
bin	-0.00012115829743333	0
bin	-0.00010251855936667	0
bin	-8.38788213e-005	0
bin	-6.5239083233333e-005	0
bin	-4.6599345166667e-005	0
bin	-2.79596071e-005	0
bin	-9.3198690333333e-006	8774
bin	9.3198690333333e-006	105
bin	2.79596071e-005	92
bin	4.6599345166667e-005	67
bin	6.5239083233333e-005	76
bin	8.38788213e-005	4347
bin	0.00010251855936667	85
bin	0.00012115829743333	65
bin	0.0001397980355	51
bin	0.00015843777356667	385
bin	0.00017707751163333	26
bin	0.0001957172497	16
bin	0.00021435698776667	8
bin	0.00023299672583333	6
bin	0.0002516364639	2
bin	0.00027027620196667	5
bin	0.00028891594003333	2
bin	0.0003075556781	0
bin	0.00032619541616667	0
bin	0.00034483515423333	0
bin	0.0003634748923	0
bin	0.00038211463036667	0
bin	0.00040075436843333	0
bin	0.0004193941065	0
scalar MeshLAN.host[2].eth[0].queue.dataQueue dropPk:count 0
attr interpolationmode none
attr source dropPkByQueue
attr title "dropped packets, count"
scalar MeshLAN.host[2].eth[0].queue.dataQueue dropPk:sum(packetBytes) 0
attr interpolationmode none
attr source dropPkByQueue
attr title "dropped packets, sum(packetBytes)"
scalar MeshLAN.host[2].eth[0].queue.dataQueue rcvdPk:count 14112
attr interpolationmode none
attr title "received packets, count"
scalar MeshLAN.host[2].eth[0].queue.dataQueue rcvdPk:sum(packetBytes) 10039241
attr interpolationmode none
attr title "received packets, sum(packetBytes)"
scalar MeshLAN.host[2].eth[0].mac "simulated time" 20
scalar MeshLAN.host[2].eth[0].mac full-duplex 1
scalar MeshLAN.host[2].eth[0].mac "frames/sec sent" 929.45
scalar MeshLAN.host[2].eth[0].mac "frames/sec rcvd" 929.45
scalar MeshLAN.host[2].eth[0].mac "bits/sec sent" 5293402.8
scalar MeshLAN.host[2].eth[0].mac "bits/sec rcvd" 5293402.8
scalar MeshLAN.host[2].eth[0].mac "rx channel idle (%)" 94.6471124
scalar MeshLAN.host[2].eth[0].mac "rx channel utilization (%)" 5.3528876
scalar MeshLAN.host[2].eth[0].mac rxPkFromHL:count 14112
attr interpolationmode none
attr source rxPkFromHL
attr title "packet bytes from higher layer, count"
scalar MeshLAN.host[2].eth[0].mac rxPkFromHL:sum(packetBytes) 10039241
attr interpolationmode none
attr source rxPkFromHL
attr title "packet bytes from higher layer, sum(packetBytes)"
scalar MeshLAN.host[2].eth[0].mac rxPausePkUnits:count 0
attr interpolationmode none
attr title "pause units received, count"
scalar MeshLAN.host[2].eth[0].mac rxPausePkUnits:sum 0
attr interpolationmode none
attr title "pause units received, sum"
scalar MeshLAN.host[2].eth[0].mac txPausePkUnits:count 0
attr interpolationmode none
attr title "pause units sent, count"
scalar MeshLAN.host[2].eth[0].mac txPausePkUnits:sum 0
attr interpolationmode none
attr title "pause units sent, sum"
scalar MeshLAN.host[2].eth[0].mac txPk:count 14112
attr interpolationmode none
attr source txPk
attr title "packets transmitted, count"
scalar MeshLAN.host[2].eth[0].mac txPk:sum(packetBytes) 10039241
attr interpolationmode none
attr source txPk
attr title "packets transmitted, sum(packetBytes)"
scalar MeshLAN.host[2].eth[0].mac droppedPkNotForUs:count 0
attr interpolationmode none
attr source dropPkNotForUs
attr title "packets dropped/not for us, count"
scalar MeshLAN.host[2].eth[0].mac droppedPkNotForUs:sum(packetBytes) 0
attr interpolationmode none
attr source dropPkNotForUs
attr title "packets dropped/not for us, sum(packetBytes)"
scalar MeshLAN.host[2].eth[0].mac droppedPkBitError:count 0
attr interpolationmode none
attr source dropPkBitError
attr title "packets dropped/bit error, count"
scalar MeshLAN.host[2].eth[0].mac droppedPkBitError:sum(packetBytes) 0
attr interpolationmode none
attr source dropPkBitError
attr title "packets dropped/bit error, sum(packetBytes)"
scalar MeshLAN.host[2].eth[0].mac droppedPkIfaceDown:count 0
attr interpolationmode none
attr source dropPkIfaceDown
attr title "packets dropped/interface down, count"
scalar MeshLAN.host[2].eth[0].mac droppedPkIfaceDown:sum(packetBytes) 0
attr interpolationmode none
attr source dropPkIfaceDown
attr title "packets dropped/interface down, sum(packetBytes)"
scalar MeshLAN.host[2].eth[0].mac rxPkOk:count 14112
attr interpolationmode none
attr source rxPkOk
attr title "packets received OK, count"
scalar MeshLAN.host[2].eth[0].mac rxPkOk:sum(packetBytes) 10039241
attr interpolationmode none
attr source rxPkOk
attr title "packets received OK, sum(packetBytes)"
scalar MeshLAN.host[2].eth[0].mac passedUpPk:count 14112
attr interpolationmode none
attr source packetSentToUpper
attr title "packets passed to higher layer, count"
scalar MeshLAN.host[2].eth[0].mac passedUpPk:sum(packetBytes) 10039241
attr interpolationmode none
attr source packetSentToUpper
attr title "packets passed to higher layer, sum(packetBytes)"
scalar MeshLAN.host[2].eth[0].encap pauseSent:count 0
attr title "pause sent, count"
scalar MeshLAN.host[2].eth[0].encap pauseSent:sum 0
attr title "pause sent, sum"
scalar MeshLAN.host[2].eth[0].encap decapPk:count 14112
attr interpolationmode none
attr source decapPk
attr title "packets decapsulated, count"
scalar MeshLAN.host[2].eth[0].encap decapPk:sum(packetBytes) 9784986
attr interpolationmode none
attr source decapPk
attr title "packets decapsulated, sum(packetBytes)"
scalar MeshLAN.host[2].eth[0].encap encapPk:count 14112
attr interpolationmode none
attr source encapPk
attr title "packets encapsulated, count"
scalar MeshLAN.host[2].eth[0].encap encapPk:sum(packetBytes) 9784986
attr interpolationmode none
attr source encapPk
attr title "packets encapsulated, sum(packetBytes)"
scalar MeshLAN.host[2].pingApp[0] "Pings sent" 386
scalar MeshLAN.host[2].pingApp[0] "ping loss rate (%)" 0
scalar MeshLAN.host[2].pingApp[0] "ping out-of-order rate (%)" 0
scalar MeshLAN.host[2].pingApp[0] pingRxSeq:count 294
attr interpolationmode none
attr title "ping rx seq, count"
scalar MeshLAN.host[2].pingApp[0] pingTxSeq:count 294
attr interpolationmode none
attr title "ping tx seq, count"
scalar MeshLAN.host[2].pingApp[0] numOutOfOrderArrivals:last nan
attr interpolationmode none
attr title "ping out-of-order arrivals, last"
scalar MeshLAN.host[2].pingApp[0] numLost:last nan
attr interpolationmode none
attr title "pings lost, last"
scalar MeshLAN.host[2].pingApp[0] rtt:mean 9.7445941332192e-005
attr interpolationmode none
attr title "ping round-trip time, mean"
attr unit s
scalar MeshLAN.host[2].pingApp[1] "Pings sent" 386
scalar MeshLAN.host[2].pingApp[1] "ping loss rate (%)" 0
scalar MeshLAN.host[2].pingApp[1] "ping out-of-order rate (%)" 0
scalar MeshLAN.host[2].pingApp[1] pingRxSeq:count 288
attr interpolationmode none
attr title "ping rx seq, count"
scalar MeshLAN.host[2].pingApp[1] pingTxSeq:count 288
attr interpolationmode none
attr title "ping tx seq, count"
scalar MeshLAN.host[2].pingApp[1] numOutOfOrderArrivals:last nan
attr interpolationmode none
attr title "ping out-of-order arrivals, last"
scalar MeshLAN.host[2].pingApp[1] numLost:last nan
attr interpolationmode none
attr title "pings lost, last"
scalar MeshLAN.host[2].pingApp[1] rtt:mean 0.00032454583514634
attr interpolationmode none
attr title "ping round-trip time, mean"
attr unit s
scalar MeshLAN.host[2].pingApp[2] "Pings sent" 401
scalar MeshLAN.host[2].pingApp[2] "ping loss rate (%)" 0
scalar MeshLAN.host[2].pingApp[2] "ping out-of-order rate (%)" 0
scalar MeshLAN.host[2].pingApp[2] pingRxSeq:count 307
attr interpolationmode none
attr title "ping rx seq, count"
scalar MeshLAN.host[2].pingApp[2] pingTxSeq:count 307
attr interpolationmode none
attr title "ping tx seq, count"
scalar MeshLAN.host[2].pingApp[2] numOutOfOrderArrivals:last nan
attr interpolationmode none
attr title "ping out-of-order arrivals, last"
scalar MeshLAN.host[2].pingApp[2] numLost:last nan
attr interpolationmode none
attr title "pings lost, last"
scalar MeshLAN.host[2].pingApp[2] rtt:mean 0.00030967182887708
attr interpolationmode none
attr title "ping round-trip time, mean"
attr unit s
scalar MeshLAN.host[2].pingApp[3] "Pings sent" 387
scalar MeshLAN.host[2].pingApp[3] "ping loss rate (%)" 0
scalar MeshLAN.host[2].pingApp[3] "ping out-of-order rate (%)" 0
scalar MeshLAN.host[2].pingApp[3] pingRxSeq:count 292
attr interpolationmode none
attr title "ping rx seq, count"
scalar MeshLAN.host[2].pingApp[3] pingTxSeq:count 292
attr interpolationmode none
attr title "ping tx seq, count"
scalar MeshLAN.host[2].pingApp[3] numOutOfOrderArrivals:last nan
attr interpolationmode none
attr title "ping out-of-order arrivals, last"
scalar MeshLAN.host[2].pingApp[3] numLost:last nan
attr interpolationmode none
attr title "pings lost, last"
scalar MeshLAN.host[2].pingApp[3] rtt:mean 0.00027308678325773
attr interpolationmode none
attr title "ping round-trip time, mean"
attr unit s
scalar MeshLAN.host[2].pingApp[4] "Pings sent" 396
scalar MeshLAN.host[2].pingApp[4] "ping loss rate (%)" 0
scalar MeshLAN.host[2].pingApp[4] "ping out-of-order rate (%)" 0
scalar MeshLAN.host[2].pingApp[4] pingRxSeq:count 299
attr interpolationmode none
attr title "ping rx seq, count"
scalar MeshLAN.host[2].pingApp[4] pingTxSeq:count 299
attr interpolationmode none
attr title "ping tx seq, count"
scalar MeshLAN.host[2].pingApp[4] numOutOfOrderArrivals:last nan
attr interpolationmode none
attr title "ping out-of-order arrivals, last"
scalar MeshLAN.host[2].pingApp[4] numLost:last nan
attr interpolationmode none
attr title "pings lost, last"
scalar MeshLAN.host[2].pingApp[4] rtt:mean 0.00046136895486149
attr interpolationmode none
attr title "ping round-trip time, mean"
attr unit s
scalar MeshLAN.host[2].pingApp[5] "Pings sent" 388
scalar MeshLAN.host[2].pingApp[5] "ping loss rate (%)" 0
scalar MeshLAN.host[2].pingApp[5] "ping out-of-order rate (%)" 0
scalar MeshLAN.host[2].pingApp[5] pingRxSeq:count 297
attr interpolationmode none
attr title "ping rx seq, count"
scalar MeshLAN.host[2].pingApp[5] pingTxSeq:count 297
attr interpolationmode none
attr title "ping tx seq, count"
scalar MeshLAN.host[2].pingApp[5] numOutOfOrderArrivals:last nan
attr interpolationmode none
attr title "ping out-of-order arrivals, last"
scalar MeshLAN.host[2].pingApp[5] numLost:last nan
attr interpolationmode none
attr title "pings lost, last"
[...]
attr interpolationmode none
attr title "received packets, sum(packetBytes)"
scalar MeshLAN.router[9].eth[7].mac "simulated time" 20
scalar MeshLAN.router[9].eth[7].mac full-duplex 1
scalar MeshLAN.router[9].eth[7].mac "frames/sec sent" 178.35
scalar MeshLAN.router[9].eth[7].mac "frames/sec rcvd" 178.35
scalar MeshLAN.router[9].eth[7].mac "bits/sec sent" 1017866
scalar MeshLAN.router[9].eth[7].mac "bits/sec rcvd" 1017866
scalar MeshLAN.router[9].eth[7].mac "rx channel idle (%)" 98.9707196
scalar MeshLAN.router[9].eth[7].mac "rx channel utilization (%)" 1.0292804
scalar MeshLAN.router[9].eth[7].mac rxPkFromHL:count 2649
attr interpolationmode none
attr source rxPkFromHL
attr title "packet bytes from higher layer, count"
scalar MeshLAN.router[9].eth[7].mac rxPkFromHL:sum(packetBytes) 1894085
attr interpolationmode none
attr source rxPkFromHL
attr title "packet bytes from higher layer, sum(packetBytes)"
scalar MeshLAN.router[9].eth[7].mac rxPausePkUnits:count 0
attr interpolationmode none
attr title "pause units received, count"
scalar MeshLAN.router[9].eth[7].mac rxPausePkUnits:sum 0
attr interpolationmode none
attr title "pause units received, sum"
scalar MeshLAN.router[9].eth[7].mac txPausePkUnits:count 0
attr interpolationmode none
attr title "pause units sent, count"
scalar MeshLAN.router[9].eth[7].mac txPausePkUnits:sum 0
attr interpolationmode none
attr title "pause units sent, sum"
scalar MeshLAN.router[9].eth[7].mac txPk:count 2649
attr interpolationmode none
attr source txPk
attr title "packets transmitted, count"
scalar MeshLAN.router[9].eth[7].mac txPk:sum(packetBytes) 1894085
attr interpolationmode none
attr source txPk
attr title "packets transmitted, sum(packetBytes)"
scalar MeshLAN.router[9].eth[7].mac droppedPkNotForUs:count 0
attr interpolationmode none
attr source dropPkNotForUs
attr title "packets dropped/not for us, count"
scalar MeshLAN.router[9].eth[7].mac droppedPkNotForUs:sum(packetBytes) 0
attr interpolationmode none
attr source dropPkNotForUs
attr title "packets dropped/not for us, sum(packetBytes)"
scalar MeshLAN.router[9].eth[7].mac droppedPkBitError:count 0
attr interpolationmode none
attr source dropPkBitError
attr title "packets dropped/bit error, count"
scalar MeshLAN.router[9].eth[7].mac droppedPkBitError:sum(packetBytes) 0
attr interpolationmode none
attr source dropPkBitError
attr title "packets dropped/bit error, sum(packetBytes)"
scalar MeshLAN.router[9].eth[7].mac droppedPkIfaceDown:count 0
attr interpolationmode none
attr source dropPkIfaceDown
attr title "packets dropped/interface down, count"
scalar MeshLAN.router[9].eth[7].mac droppedPkIfaceDown:sum(packetBytes) 0
attr interpolationmode none
attr source dropPkIfaceDown
attr title "packets dropped/interface down, sum(packetBytes)"
scalar MeshLAN.router[9].eth[7].mac rxPkOk:count 2649
attr interpolationmode none
attr source rxPkOk
attr title "packets received OK, count"
scalar MeshLAN.router[9].eth[7].mac rxPkOk:sum(packetBytes) 1894085
attr interpolationmode none
attr source rxPkOk
attr title "packets received OK, sum(packetBytes)"
scalar MeshLAN.router[9].eth[7].mac passedUpPk:count 2649
attr interpolationmode none
attr source packetSentToUpper
attr title "packets passed to higher layer, count"
scalar MeshLAN.router[9].eth[7].mac passedUpPk:sum(packetBytes) 1894085
attr interpolationmode none
attr source packetSentToUpper
attr title "packets passed to higher layer, sum(packetBytes)"
scalar MeshLAN.router[9].eth[7].encap pauseSent:count 0
attr title "pause sent, count"
scalar MeshLAN.router[9].eth[7].encap pauseSent:sum 0
attr title "pause sent, sum"
scalar MeshLAN.router[9].eth[7].encap decapPk:count 2649
attr interpolationmode none
attr source decapPk
attr title "packets decapsulated, count"
scalar MeshLAN.router[9].eth[7].encap decapPk:sum(packetBytes) 1845971
attr interpolationmode none
attr source decapPk
attr title "packets decapsulated, sum(packetBytes)"
scalar MeshLAN.router[9].eth[7].encap encapPk:count 2649
attr interpolationmode none
attr source encapPk
attr title "packets encapsulated, count"
scalar MeshLAN.router[9].eth[7].encap encapPk:sum(packetBytes) 1845971
attr interpolationmode none
attr source encapPk
attr title "packets encapsulated, sum(packetBytes)"
scalar MeshLAN.router[9].eth[8].queue.pauseQueue queueLength:max nan
attr interpolationmode sample-hold
attr title "queue length, max"
scalar MeshLAN.router[9].eth[8].queue.pauseQueue queueLength:timeavg nan
attr interpolationmode sample-hold
attr title "queue length, timeavg"
statistic MeshLAN.router[9].eth[8].queue.pauseQueue queueingTime:histogram
field count 0
field mean nan
field stddev nan
field min nan
field max nan
field sum 0
field sqrsum 0
attr interpolationmode none
attr title "queueing time, histogram"
bin	-inf	0
bin	-0.5	0
bin	-0.46666666666667	0
bin	-0.43333333333333	0
bin	-0.4	0
bin	-0.36666666666667	0
bin	-0.33333333333333	0
bin	-0.3	0
bin	-0.26666666666667	0
bin	-0.23333333333333	0
bin	-0.2	0
bin	-0.16666666666667	0
bin	-0.13333333333333	0
bin	-0.1	0
bin	-0.066666666666667	0
bin	-0.033333333333333	0
bin	0	0
bin	0.033333333333333	0
bin	0.066666666666667	0
bin	0.1	0
bin	0.13333333333333	0
bin	0.16666666666667	0
bin	0.2	0
bin	0.23333333333333	0
bin	0.26666666666667	0
bin	0.3	0
bin	0.33333333333333	0
bin	0.36666666666667	0
bin	0.4	0
bin	0.43333333333333	0
bin	0.46666666666667	0
bin	0.5	0
scalar MeshLAN.router[9].eth[8].queue.pauseQueue dropPk:count 0
attr interpolationmode none
attr source dropPkByQueue
attr title "dropped packets, count"
scalar MeshLAN.router[9].eth[8].queue.pauseQueue dropPk:sum(packetBytes) 0
attr interpolationmode none
attr source dropPkByQueue
attr title "dropped packets, sum(packetBytes)"
scalar MeshLAN.router[9].eth[8].queue.pauseQueue rcvdPk:count 0
attr interpolationmode none
attr title "received packets, count"
scalar MeshLAN.router[9].eth[8].queue.pauseQueue rcvdPk:sum(packetBytes) 0
attr interpolationmode none
attr title "received packets, sum(packetBytes)"
scalar MeshLAN.router[9].eth[8].queue.dataQueue queueLength:max 3
attr interpolationmode sample-hold
attr title "queue length, max"
scalar MeshLAN.router[9].eth[8].queue.dataQueue queueLength:timeavg 0.0048029002414582
attr interpolationmode sample-hold
attr title "queue length, timeavg"
statistic MeshLAN.router[9].eth[8].queue.dataQueue queueingTime:histogram
field count 2706
field mean 2.6586207152623e-005
field stddev 4.0305123346513e-005
field min 0
field max 0.00018072
field sum 0.071942276554999
field sqrsum 6.306952795902e-006
attr interpolationmode none
attr title "queueing time, histogram"
bin	-inf	0
bin	-8.464e-005	0
bin	-7.3354666666667e-005	0
bin	-6.2069333333333e-005	0
bin	-5.0784e-005	0
bin	-3.9498666666667e-005	0
bin	-2.8213333333333e-005	0
bin	-1.6928e-005	0
bin	-5.6426666666667e-006	1759
bin	5.6426666666667e-006	5
bin	1.6928e-005	54
bin	2.8213333333333e-005	7
bin	3.9498666666667e-005	78
bin	5.0784e-005	94
bin	6.2069333333333e-005	139
bin	7.3354666666667e-005	79
bin	8.464e-005	431
bin	9.5925333333333e-005	3
bin	0.00010721066666667	2
bin	0.000118496	1
bin	0.00012978133333333	0
bin	0.00014106666666667	1
bin	0.000152352	2
bin	0.00016363733333333	49
bin	0.00017492266666667	2
bin	0.000186208	0
bin	0.00019749333333333	0
bin	0.00020877866666667	0
bin	0.000220064	0
bin	0.00023134933333333	0
bin	0.00024263466666667	0
bin	0.00025392	0
scalar MeshLAN.router[9].eth[8].queue.dataQueue dropPk:count 0
attr interpolationmode none
attr source dropPkByQueue
attr title "dropped packets, count"
scalar MeshLAN.router[9].eth[8].queue.dataQueue dropPk:sum(packetBytes) 0
attr interpolationmode none
attr source dropPkByQueue
attr title "dropped packets, sum(packetBytes)"
scalar MeshLAN.router[9].eth[8].queue.dataQueue rcvdPk:count 2706
attr interpolationmode none
attr title "received packets, count"
scalar MeshLAN.router[9].eth[8].queue.dataQueue rcvdPk:sum(packetBytes) 1946840
attr interpolationmode none
attr title "received packets, sum(packetBytes)"
scalar MeshLAN.router[9].eth[8].mac "simulated time" 20
scalar MeshLAN.router[9].eth[8].mac full-duplex 1
scalar MeshLAN.router[9].eth[8].mac "frames/sec sent" 177.3
scalar MeshLAN.router[9].eth[8].mac "frames/sec rcvd" 177.3
scalar MeshLAN.router[9].eth[8].mac "bits/sec sent" 1020133.2
scalar MeshLAN.router[9].eth[8].mac "bits/sec rcvd" 1020133.2
scalar MeshLAN.router[9].eth[8].mac "rx channel idle (%)" 98.9685196
scalar MeshLAN.router[9].eth[8].mac "rx channel utilization (%)" 1.0314804
scalar MeshLAN.router[9].eth[8].mac rxPkFromHL:count 2706
attr interpolationmode none
attr source rxPkFromHL
attr title "packet bytes from higher layer, count"
scalar MeshLAN.router[9].eth[8].mac rxPkFromHL:sum(packetBytes) 1946840
attr interpolationmode none
attr source rxPkFromHL
attr title "packet bytes from higher layer, sum(packetBytes)"
scalar MeshLAN.router[9].eth[8].mac rxPausePkUnits:count 0
attr interpolationmode none
attr title "pause units received, count"
scalar MeshLAN.router[9].eth[8].mac rxPausePkUnits:sum 0
attr interpolationmode none
attr title "pause units received, sum"
scalar MeshLAN.router[9].eth[8].mac txPausePkUnits:count 0
attr interpolationmode none
attr title "pause units sent, count"
scalar MeshLAN.router[9].eth[8].mac txPausePkUnits:sum 0
attr interpolationmode none
attr title "pause units sent, sum"
scalar MeshLAN.router[9].eth[8].mac txPk:count 2706
attr interpolationmode none
attr source txPk
attr title "packets transmitted, count"
scalar MeshLAN.router[9].eth[8].mac txPk:sum(packetBytes) 1946840
attr interpolationmode none
attr source txPk
attr title "packets transmitted, sum(packetBytes)"
scalar MeshLAN.router[9].eth[8].mac droppedPkNotForUs:count 0
attr interpolationmode none
attr source dropPkNotForUs
attr title "packets dropped/not for us, count"
scalar MeshLAN.router[9].eth[8].mac droppedPkNotForUs:sum(packetBytes) 0
attr interpolationmode none
attr source dropPkNotForUs
attr title "packets dropped/not for us, sum(packetBytes)"
scalar MeshLAN.router[9].eth[8].mac droppedPkBitError:count 0
attr interpolationmode none
attr source dropPkBitError
attr title "packets dropped/bit error, count"
scalar MeshLAN.router[9].eth[8].mac droppedPkBitError:sum(packetBytes) 0
attr interpolationmode none
attr source dropPkBitError
attr title "packets dropped/bit error, sum(packetBytes)"
scalar MeshLAN.router[9].eth[8].mac droppedPkIfaceDown:count 0
attr interpolationmode none
attr source dropPkIfaceDown
attr title "packets dropped/interface down, count"
scalar MeshLAN.router[9].eth[8].mac droppedPkIfaceDown:sum(packetBytes) 0
attr interpolationmode none
attr source dropPkIfaceDown
attr title "packets dropped/interface down, sum(packetBytes)"
scalar MeshLAN.router[9].eth[8].mac rxPkOk:count 2706
attr interpolationmode none
attr source rxPkOk
attr title "packets received OK, count"
scalar MeshLAN.router[9].eth[8].mac rxPkOk:sum(packetBytes) 1946840
attr interpolationmode none
attr source rxPkOk
attr title "packets received OK, sum(packetBytes)"
scalar MeshLAN.router[9].eth[8].mac passedUpPk:count 2706
attr interpolationmode none
attr source packetSentToUpper
attr title "packets passed to higher layer, count"
scalar MeshLAN.router[9].eth[8].mac passedUpPk:sum(packetBytes) 1946840
attr interpolationmode none
attr source packetSentToUpper
attr title "packets passed to higher layer, sum(packetBytes)"
scalar MeshLAN.router[9].eth[8].encap pauseSent:count 0
attr title "pause sent, count"
scalar MeshLAN.router[9].eth[8].encap pauseSent:sum 0
attr title "pause sent, sum"
scalar MeshLAN.router[9].eth[8].encap decapPk:count 2706
attr interpolationmode none
attr source decapPk
attr title "packets decapsulated, count"
scalar MeshLAN.router[9].eth[8].encap decapPk:sum(packetBytes) 1897344
attr interpolationmode none
attr source decapPk
attr title "packets decapsulated, sum(packetBytes)"
scalar MeshLAN.router[9].eth[8].encap encapPk:count 2706
attr interpolationmode none
attr source encapPk
attr title "packets encapsulated, count"
scalar MeshLAN.router[9].eth[8].encap encapPk:sum(packetBytes) 1897344
attr interpolationmode none
attr source encapPk
attr title "packets encapsulated, sum(packetBytes)"
scalar MeshLAN.router[9].eth[9].queue.pauseQueue queueLength:max nan
attr interpolationmode sample-hold
attr title "queue length, max"
scalar MeshLAN.router[9].eth[9].queue.pauseQueue queueLength:timeavg nan
attr interpolationmode sample-hold
attr title "queue length, timeavg"
statistic MeshLAN.router[9].eth[9].queue.pauseQueue queueingTime:histogram
field count 0
field mean nan
field stddev nan
field min nan
field max nan
field sum 0
field sqrsum 0
attr interpolationmode none
attr title "queueing time, histogram"
bin	-inf	0
bin	-0.5	0
bin	-0.46666666666667	0
bin	-0.43333333333333	0
bin	-0.4	0
bin	-0.36666666666667	0
bin	-0.33333333333333	0
bin	-0.3	0
bin	-0.26666666666667	0
bin	-0.23333333333333	0
bin	-0.2	0
bin	-0.16666666666667	0
bin	-0.13333333333333	0
bin	-0.1	0
bin	-0.066666666666667	0
bin	-0.033333333333333	0
bin	0	0
bin	0.033333333333333	0
bin	0.066666666666667	0
bin	0.1	0
bin	0.13333333333333	0
bin	0.16666666666667	0
bin	0.2	0
bin	0.23333333333333	0
bin	0.26666666666667	0
bin	0.3	0
bin	0.33333333333333	0
bin	0.36666666666667	0
bin	0.4	0
bin	0.43333333333333	0
bin	0.46666666666667	0
bin	0.5	0
scalar MeshLAN.router[9].eth[9].queue.pauseQueue dropPk:count 0
attr interpolationmode none
attr source dropPkByQueue
attr title "dropped packets, count"
scalar MeshLAN.router[9].eth[9].queue.pauseQueue dropPk:sum(packetBytes) 0
attr interpolationmode none
attr source dropPkByQueue
attr title "dropped packets, sum(packetBytes)"
scalar MeshLAN.router[9].eth[9].queue.pauseQueue rcvdPk:count 0
attr interpolationmode none
attr title "received packets, count"
scalar MeshLAN.router[9].eth[9].queue.pauseQueue rcvdPk:sum(packetBytes) 0
attr interpolationmode none
attr title "received packets, sum(packetBytes)"
scalar MeshLAN.router[9].eth[9].queue.dataQueue queueLength:max 3
attr interpolationmode sample-hold
attr title "queue length, max"
scalar MeshLAN.router[9].eth[9].queue.dataQueue queueLength:timeavg 0.004784581362343
attr interpolationmode sample-hold
attr title "queue length, timeavg"
statistic MeshLAN.router[9].eth[9].queue.dataQueue queueingTime:histogram
field count 2769
field mean 2.5912625293607e-005
field stddev 3.6327370647832e-005
field min 0
field max 0.00015448
field sum 0.071752059437999
field sqrsum 5.5121525417176e-006
attr interpolationmode none
attr title "queueing time, histogram"
bin	-inf	0
bin	-4.232e-005	0
bin	-3.6677333333333e-005	0
bin	-3.1034666666667e-005	0
bin	-2.5392e-005	0
bin	-1.9749333333333e-005	0
bin	-1.4106666666667e-005	0
bin	-8.464e-006	0
bin	-2.8213333333333e-006	1760
bin	2.8213333333333e-006	1
bin	8.464e-006	1
bin	1.4106666666667e-005	32
bin	1.9749333333333e-005	35
bin	2.5392e-005	2
bin	3.1034666666667e-005	5
bin	3.6677333333333e-005	9
bin	4.232e-005	67
bin	4.7962666666667e-005	10
bin	5.3605333333333e-005	66
bin	5.9248e-005	66
bin	6.4890666666667e-005	28
bin	7.0533333333333e-005	66
bin	7.6176e-005	93
bin	8.1818666666667e-005	522
bin	8.7461333333333e-005	0
bin	9.3104e-005	1
bin	9.8746666666667e-005	0
bin	0.00010438933333333	0
bin	0.000110032	0
bin	0.00011567466666667	1
bin	0.00012131733333333	2
bin	0.00012696	2
scalar MeshLAN.router[9].eth[9].queue.dataQueue dropPk:count 0
attr interpolationmode none
attr source dropPkByQueue
attr title "dropped packets, count"
scalar MeshLAN.router[9].eth[9].queue.dataQueue dropPk:sum(packetBytes) 0
attr interpolationmode none
attr source dropPkByQueue
attr title "dropped packets, sum(packetBytes)"
scalar MeshLAN.router[9].eth[9].queue.dataQueue rcvdPk:count 2769
attr interpolationmode none
attr title "received packets, count"
scalar MeshLAN.router[9].eth[9].queue.dataQueue rcvdPk:sum(packetBytes) 1931121
attr interpolationmode none
attr title "received packets, sum(packetBytes)"
scalar MeshLAN.router[9].eth[9].mac "simulated time" 20
scalar MeshLAN.router[9].eth[9].mac full-duplex 1
scalar MeshLAN.router[9].eth[9].mac "frames/sec sent" 181.9
scalar MeshLAN.router[9].eth[9].mac "frames/sec rcvd" 181.9
scalar MeshLAN.router[9].eth[9].mac "bits/sec sent" 1012326.4
scalar MeshLAN.router[9].eth[9].mac "bits/sec rcvd" 1012326.4
scalar MeshLAN.router[9].eth[9].mac "rx channel idle (%)" 98.976032
scalar MeshLAN.router[9].eth[9].mac "rx channel utilization (%)" 1.023968
scalar MeshLAN.router[9].eth[9].mac rxPkFromHL:count 2769
attr interpolationmode none
attr source rxPkFromHL
attr title "packet bytes from higher layer, count"
scalar MeshLAN.router[9].eth[9].mac rxPkFromHL:sum(packetBytes) 1931121
attr interpolationmode none
attr source rxPkFromHL
attr title "packet bytes from higher layer, sum(packetBytes)"
scalar MeshLAN.router[9].eth[9].mac rxPausePkUnits:count 0
attr interpolationmode none
attr title "pause units received, count"
scalar MeshLAN.router[9].eth[9].mac rxPausePkUnits:sum 0
attr interpolationmode none
attr title "pause units received, sum"
scalar MeshLAN.router[9].eth[9].mac txPausePkUnits:count 0
attr interpolationmode none
attr title "pause units sent, count"
scalar MeshLAN.router[9].eth[9].mac txPausePkUnits:sum 0
attr interpolationmode none
attr title "pause units sent, sum"
scalar MeshLAN.router[9].eth[9].mac txPk:count 2769
attr interpolationmode none
attr source txPk
attr title "packets transmitted, count"
scalar MeshLAN.router[9].eth[9].mac txPk:sum(packetBytes) 1931121
attr interpolationmode none
attr source txPk
attr title "packets transmitted, sum(packetBytes)"
scalar MeshLAN.router[9].eth[9].mac droppedPkNotForUs:count 0
attr interpolationmode none
attr source dropPkNotForUs
attr title "packets dropped/not for us, count"
scalar MeshLAN.router[9].eth[9].mac droppedPkNotForUs:sum(packetBytes) 0
attr interpolationmode none
attr source dropPkNotForUs
attr title "packets dropped/not for us, sum(packetBytes)"
scalar MeshLAN.router[9].eth[9].mac droppedPkBitError:count 0
attr interpolationmode none
attr source dropPkBitError
attr title "packets dropped/bit error, count"
scalar MeshLAN.router[9].eth[9].mac droppedPkBitError:sum(packetBytes) 0
attr interpolationmode none
attr source dropPkBitError
attr title "packets dropped/bit error, sum(packetBytes)"
scalar MeshLAN.router[9].eth[9].mac droppedPkIfaceDown:count 0
attr interpolationmode none
attr source dropPkIfaceDown
attr title "packets dropped/interface down, count"
scalar MeshLAN.router[9].eth[9].mac droppedPkIfaceDown:sum(packetBytes) 0
attr interpolationmode none
attr source dropPkIfaceDown
attr title "packets dropped/interface down, sum(packetBytes)"
scalar MeshLAN.router[9].eth[9].mac rxPkOk:count 2769
attr interpolationmode none
attr source rxPkOk
attr title "packets received OK, count"
scalar MeshLAN.router[9].eth[9].mac rxPkOk:sum(packetBytes) 1931121
attr interpolationmode none
attr source rxPkOk
attr title "packets received OK, sum(packetBytes)"
scalar MeshLAN.router[9].eth[9].mac passedUpPk:count 2769
attr interpolationmode none
attr source packetSentToUpper
attr title "packets passed to higher layer, count"
scalar MeshLAN.router[9].eth[9].mac passedUpPk:sum(packetBytes) 1931121
attr interpolationmode none
attr source packetSentToUpper
attr title "packets passed to higher layer, sum(packetBytes)"
scalar MeshLAN.router[9].eth[9].encap pauseSent:count 0
attr title "pause sent, count"
scalar MeshLAN.router[9].eth[9].encap pauseSent:sum 0
attr title "pause sent, sum"
scalar MeshLAN.router[9].eth[9].encap decapPk:count 2769
attr interpolationmode none
attr source decapPk
attr title "packets decapsulated, count"
scalar MeshLAN.router[9].eth[9].encap decapPk:sum(packetBytes) 1880967
attr interpolationmode none
attr source decapPk
attr title "packets decapsulated, sum(packetBytes)"
scalar MeshLAN.router[9].eth[9].encap encapPk:count 2769
attr interpolationmode none
attr source encapPk
attr title "packets encapsulated, count"
scalar MeshLAN.router[9].eth[9].encap encapPk:sum(packetBytes) 1880967
attr interpolationmode none
attr source encapPk
attr title "packets encapsulated, sum(packetBytes)"

