version 2
run MeshLAN10-packetsize-1-20180110-21:43:40-5032
attr configname MeshLAN10-packetsize
attr datetime 20180110-21:43:40
attr experiment MeshLAN10-packetsize
attr inifile MeshLAN.ini
attr iterationvars $pa=28
attr iterationvarsf pa=28-
attr measurement $pa=28
attr network MeshLAN
attr processid 5032
attr repetition 0
attr replication #0
attr resultdir results
attr runnumber 1
attr seedset 1
itervar pa 28
param *.numHosts 10
param **.datarate 10Mbps
param **.host[*].pingApp[*].sendInterval "truncnormal(50ms, 25ms)"
param **.host[*].pingApp[*].packetSize "truncnormal(512B, 256B)"
param **.queueType "\"DropTailQueue\""
param **.frameCapacity 10
param **.mtu 1024B
param **.host[*].numPingApps 28
param **.host[*].pingApp[*].typename "\"PingApp\""
param **.host[*].pingApp[*].count 1
param **.host[*].pingApp[*].startTime "truncnormal(200ms, 100ms)"
param **.host[*].pingApp[*].destAddr "\"*\""

scalar MeshLAN.host[0].networkLayer.arp sentReply:count 0
attr title "ARP replies sent, count"
scalar MeshLAN.host[0].networkLayer.arp sentReq:count 0
attr title "ARP request sent, count"
scalar MeshLAN.host[0].networkLayer.arp failedARPResolution:count 0
attr title "ARP failed resolutions, count"
scalar MeshLAN.host[0].networkLayer.arp completedARPResolution:count 0
attr title "ARP completed resolutions, count"
scalar MeshLAN.host[0].networkLayer.arp initiatedARPResolution:count 0
attr title "ARP initiated resolutions, count"
scalar MeshLAN.host[0].lo0.lo droppedPkBitError:count 0
attr interpolationmode none
attr source dropPkBitError
attr title "packets dropped/bit error, count"
scalar MeshLAN.host[0].lo0.lo droppedPkBitError:sum(packetBytes) 0
attr interpolationmode none
attr source dropPkBitError
attr title "packets dropped/bit error, sum(packetBytes)"
scalar MeshLAN.host[0].lo0.lo rcvdPkFromHL:count 140
attr interpolationmode none
attr source packetReceivedFromUpper
attr title "packets received from higher layer, count"
scalar MeshLAN.host[0].lo0.lo rcvdPkFromHL:sum(packetBytes) 72540
attr interpolationmode none
attr source packetReceivedFromUpper
attr title "packets received from higher layer, sum(packetBytes)"
scalar MeshLAN.host[0].lo0.lo passedUpPk:count 140
attr interpolationmode none
attr source packetSentToUpper
attr title "packets passed to higher layer, count"
scalar MeshLAN.host[0].lo0.lo passedUpPk:sum(packetBytes) 72540
attr interpolationmode none
attr source packetSentToUpper
attr title "packets passed to higher layer, sum(packetBytes)"
scalar MeshLAN.host[0].eth[0].queue.pauseQueue queueLength:max nan
attr interpolationmode sample-hold
attr title "queue length, max"
scalar MeshLAN.host[0].eth[0].queue.pauseQueue queueLength:timeavg nan
attr interpolationmode sample-hold
attr title "queue length, timeavg"
statistic MeshLAN.host[0].eth[0].queue.pauseQueue queueingTime:histogram
field count 0
field mean nan
field stddev nan
field min nan
field max nan
field sum 0
field sqrsum 0
attr interpolationmode none
attr title "queueing time, histogram"
bin	-inf	0
bin	-0.5	0
bin	-0.46666666666667	0
bin	-0.43333333333333	0
bin	-0.4	0
bin	-0.36666666666667	0
bin	-0.33333333333333	0
bin	-0.3	0
bin	-0.26666666666667	0
bin	-0.23333333333333	0
bin	-0.2	0
bin	-0.16666666666667	0
bin	-0.13333333333333	0
bin	-0.1	0
bin	-0.066666666666667	0
bin	-0.033333333333333	0
bin	0	0
bin	0.033333333333333	0
bin	0.066666666666667	0
bin	0.1	0
bin	0.13333333333333	0
bin	0.16666666666667	0
bin	0.2	0
bin	0.23333333333333	0
bin	0.26666666666667	0
bin	0.3	0
bin	0.33333333333333	0
bin	0.36666666666667	0
bin	0.4	0
bin	0.43333333333333	0
bin	0.46666666666667	0
bin	0.5	0
scalar MeshLAN.host[0].eth[0].queue.pauseQueue dropPk:count 0
attr interpolationmode none
attr source dropPkByQueue
attr title "dropped packets, count"
scalar MeshLAN.host[0].eth[0].queue.pauseQueue dropPk:sum(packetBytes) 0
attr interpolationmode none
attr source dropPkByQueue
attr title "dropped packets, sum(packetBytes)"
scalar MeshLAN.host[0].eth[0].queue.pauseQueue rcvdPk:count 0
attr interpolationmode none
attr title "received packets, count"
scalar MeshLAN.host[0].eth[0].queue.pauseQueue rcvdPk:sum(packetBytes) 0
attr interpolationmode none
attr title "received packets, sum(packetBytes)"
scalar MeshLAN.host[0].eth[0].queue.dataQueue queueLength:max 4
attr interpolationmode sample-hold
attr title "queue length, max"
scalar MeshLAN.host[0].eth[0].queue.dataQueue queueLength:timeavg 0.053803213029238
attr interpolationmode sample-hold
attr title "queue length, timeavg"
statistic MeshLAN.host[0].eth[0].queue.dataQueue queueingTime:histogram
field count 8740
field mean 9.2325263951716e-005
field stddev 0.00020649009461375
field min 0
field max 0.002016941686
field sum 0.806922806938
field sqrsum 0.00044711423415726
attr interpolationmode none
attr title "queueing time, histogram"
bin	-inf	0
bin	-0.0006482807535	0
bin	-0.0005618433197	0
bin	-0.0004754058859	0
bin	-0.0003889684521	0
bin	-0.0003025310183	0
bin	-0.0002160935845	0
bin	-0.0001296561507	0
bin	-4.32187169e-005	6609
bin	4.32187169e-005	329
bin	0.0001296561507	347
bin	0.0002160935845	304
bin	0.0003025310183	310
bin	0.0003889684521	229
bin	0.0004754058859	186
bin	0.0005618433197	138
bin	0.0006482807535	92
bin	0.0007347181873	39
bin	0.0008211556211	67
bin	0.0009075930549	30
bin	0.0009940304887	18
bin	0.0010804679225	16
bin	0.0011669053563	8
bin	0.0012533427901	3
bin	0.0013397802239	7
bin	0.0014262176577	3
bin	0.0015126550915	1
bin	0.0015990925253	3
bin	0.0016855299591	0
bin	0.0017719673929	0
bin	0.0018584048267	0
bin	0.0019448422605	1
scalar MeshLAN.host[0].eth[0].queue.dataQueue dropPk:count 0
attr interpolationmode none
attr source dropPkByQueue
attr title "dropped packets, count"
scalar MeshLAN.host[0].eth[0].queue.dataQueue dropPk:sum(packetBytes) 0
attr interpolationmode none
attr source dropPkByQueue
attr title "dropped packets, sum(packetBytes)"
scalar MeshLAN.host[0].eth[0].queue.dataQueue rcvdPk:count 8740
attr interpolationmode none
attr title "received packets, count"
scalar MeshLAN.host[0].eth[0].queue.dataQueue rcvdPk:sum(packetBytes) 4838405
attr interpolationmode none
attr title "received packets, sum(packetBytes)"
scalar MeshLAN.host[0].eth[0].mac "simulated time" 20
scalar MeshLAN.host[0].eth[0].mac full-duplex 1
scalar MeshLAN.host[0].eth[0].mac "frames/sec sent" 591.9
scalar MeshLAN.host[0].eth[0].mac "frames/sec rcvd" 591.9
scalar MeshLAN.host[0].eth[0].mac "bits/sec sent" 2618981.2
scalar MeshLAN.host[0].eth[0].mac "bits/sec rcvd" 2618981.2
scalar MeshLAN.host[0].eth[0].mac "rx channel idle (%)" 73.431372
scalar MeshLAN.host[0].eth[0].mac "rx channel utilization (%)" 26.568628
scalar MeshLAN.host[0].eth[0].mac rxPkFromHL:count 8740
attr interpolationmode none
attr source rxPkFromHL
attr title "packet bytes from higher layer, count"
scalar MeshLAN.host[0].eth[0].mac rxPkFromHL:sum(packetBytes) 4838405
attr interpolationmode none
attr source rxPkFromHL
attr title "packet bytes from higher layer, sum(packetBytes)"
scalar MeshLAN.host[0].eth[0].mac rxPausePkUnits:count 0
attr interpolationmode none
attr title "pause units received, count"
scalar MeshLAN.host[0].eth[0].mac rxPausePkUnits:sum 0
attr interpolationmode none
attr title "pause units received, sum"
scalar MeshLAN.host[0].eth[0].mac txPausePkUnits:count 0
attr interpolationmode none
attr title "pause units sent, count"
scalar MeshLAN.host[0].eth[0].mac txPausePkUnits:sum 0
attr interpolationmode none
attr title "pause units sent, sum"
scalar MeshLAN.host[0].eth[0].mac txPk:count 8741
attr interpolationmode none
attr source txPk
attr title "packets transmitted, count"
scalar MeshLAN.host[0].eth[0].mac txPk:sum(packetBytes) 4839093
attr interpolationmode none
attr source txPk
attr title "packets transmitted, sum(packetBytes)"
scalar MeshLAN.host[0].eth[0].mac droppedPkNotForUs:count 0
attr interpolationmode none
attr source dropPkNotForUs
attr title "packets dropped/not for us, count"
scalar MeshLAN.host[0].eth[0].mac droppedPkNotForUs:sum(packetBytes) 0
attr interpolationmode none
attr source dropPkNotForUs
attr title "packets dropped/not for us, sum(packetBytes)"
scalar MeshLAN.host[0].eth[0].mac droppedPkBitError:count 0
attr interpolationmode none
attr source dropPkBitError
attr title "packets dropped/bit error, count"
scalar MeshLAN.host[0].eth[0].mac droppedPkBitError:sum(packetBytes) 0
attr interpolationmode none
attr source dropPkBitError
attr title "packets dropped/bit error, sum(packetBytes)"
scalar MeshLAN.host[0].eth[0].mac droppedPkIfaceDown:count 0
attr interpolationmode none
attr source dropPkIfaceDown
attr title "packets dropped/interface down, count"
scalar MeshLAN.host[0].eth[0].mac droppedPkIfaceDown:sum(packetBytes) 0
attr interpolationmode none
attr source dropPkIfaceDown
attr title "packets dropped/interface down, sum(packetBytes)"
scalar MeshLAN.host[0].eth[0].mac rxPkOk:count 8741
attr interpolationmode none
attr source rxPkOk
attr title "packets received OK, count"
scalar MeshLAN.host[0].eth[0].mac rxPkOk:sum(packetBytes) 4839093
attr interpolationmode none
attr source rxPkOk
attr title "packets received OK, sum(packetBytes)"
scalar MeshLAN.host[0].eth[0].mac passedUpPk:count 8741
attr interpolationmode none
attr source packetSentToUpper
attr title "packets passed to higher layer, count"
scalar MeshLAN.host[0].eth[0].mac passedUpPk:sum(packetBytes) 4839093
attr interpolationmode none
attr source packetSentToUpper
attr title "packets passed to higher layer, sum(packetBytes)"
scalar MeshLAN.host[0].eth[0].encap pauseSent:count 0
attr title "pause sent, count"
scalar MeshLAN.host[0].eth[0].encap pauseSent:sum 0
attr title "pause sent, sum"
scalar MeshLAN.host[0].eth[0].encap decapPk:count 8741
attr interpolationmode none
attr source decapPk
attr title "packets decapsulated, count"
scalar MeshLAN.host[0].eth[0].encap decapPk:sum(packetBytes) 4681609
attr interpolationmode none
attr source decapPk
attr title "packets decapsulated, sum(packetBytes)"
scalar MeshLAN.host[0].eth[0].encap encapPk:count 8740
attr interpolationmode none
attr source encapPk
attr title "packets encapsulated, count"
scalar MeshLAN.host[0].eth[0].encap encapPk:sum(packetBytes) 4680939
attr interpolationmode none
attr source encapPk
attr title "packets encapsulated, sum(packetBytes)"
scalar MeshLAN.host[0].pingApp[0] "Pings sent" 385
scalar MeshLAN.host[0].pingApp[0] "ping loss rate (%)" 0
scalar MeshLAN.host[0].pingApp[0] "ping out-of-order rate (%)" 0
scalar MeshLAN.host[0].pingApp[0] pingRxSeq:count 297
attr interpolationmode none
attr title "ping rx seq, count"
scalar MeshLAN.host[0].pingApp[0] pingTxSeq:count 297
attr interpolationmode none
attr title "ping tx seq, count"
scalar MeshLAN.host[0].pingApp[0] numOutOfOrderArrivals:last nan
attr interpolationmode none
attr title "ping out-of-order arrivals, last"
scalar MeshLAN.host[0].pingApp[0] numLost:last nan
attr interpolationmode none
attr title "pings lost, last"
scalar MeshLAN.host[0].pingApp[0] rtt:mean 0.0028130565490777
attr interpolationmode none
attr title "ping round-trip time, mean"
attr unit s
scalar MeshLAN.host[0].pingApp[1] "Pings sent" 387
scalar MeshLAN.host[0].pingApp[1] "ping loss rate (%)" 0
scalar MeshLAN.host[0].pingApp[1] "ping out-of-order rate (%)" 0
scalar MeshLAN.host[0].pingApp[1] pingRxSeq:count 293
attr interpolationmode none
attr title "ping rx seq, count"
scalar MeshLAN.host[0].pingApp[1] pingTxSeq:count 293
attr interpolationmode none
attr title "ping tx seq, count"
scalar MeshLAN.host[0].pingApp[1] numOutOfOrderArrivals:last nan
attr interpolationmode none
attr title "ping out-of-order arrivals, last"
scalar MeshLAN.host[0].pingApp[1] numLost:last nan
attr interpolationmode none
attr title "pings lost, last"
scalar MeshLAN.host[0].pingApp[1] rtt:mean 0.0020304504320651
attr interpolationmode none
attr title "ping round-trip time, mean"
attr unit s
scalar MeshLAN.host[0].pingApp[2] "Pings sent" 379
scalar MeshLAN.host[0].pingApp[2] "ping loss rate (%)" 0
scalar MeshLAN.host[0].pingApp[2] "ping out-of-order rate (%)" 0
scalar MeshLAN.host[0].pingApp[2] pingRxSeq:count 285
attr interpolationmode none
attr title "ping rx seq, count"
scalar MeshLAN.host[0].pingApp[2] pingTxSeq:count 285
attr interpolationmode none
attr title "ping tx seq, count"
scalar MeshLAN.host[0].pingApp[2] numOutOfOrderArrivals:last nan
attr interpolationmode none
attr title "ping out-of-order arrivals, last"
scalar MeshLAN.host[0].pingApp[2] numLost:last nan
attr interpolationmode none
attr title "pings lost, last"
scalar MeshLAN.host[0].pingApp[2] rtt:mean 0.0020690902374362
attr interpolationmode none
attr title "ping round-trip time, mean"
attr unit s
scalar MeshLAN.host[0].pingApp[3] "Pings sent" 381
scalar MeshLAN.host[0].pingApp[3] "ping loss rate (%)" 0
scalar MeshLAN.host[0].pingApp[3] "ping out-of-order rate (%)" 0
scalar MeshLAN.host[0].pingApp[3] pingRxSeq:count 289
attr interpolationmode none
attr title "ping rx seq, count"
scalar MeshLAN.host[0].pingApp[3] pingTxSeq:count 289
attr interpolationmode none
attr title "ping tx seq, count"
scalar MeshLAN.host[0].pingApp[3] numOutOfOrderArrivals:last nan
attr interpolationmode none
attr title "ping out-of-order arrivals, last"
scalar MeshLAN.host[0].pingApp[3] numLost:last nan
attr interpolationmode none
attr title "pings lost, last"
scalar MeshLAN.host[0].pingApp[3] rtt:mean 0.001683429896655
attr interpolationmode none
attr title "ping round-trip time, mean"
attr unit s
scalar MeshLAN.host[0].pingApp[4] "Pings sent" 385
scalar MeshLAN.host[0].pingApp[4] "ping loss rate (%)" 0
scalar MeshLAN.host[0].pingApp[4] "ping out-of-order rate (%)" 0
scalar MeshLAN.host[0].pingApp[4] pingRxSeq:count 291
attr interpolationmode none
attr title "ping rx seq, count"
scalar MeshLAN.host[0].pingApp[4] pingTxSeq:count 291
attr interpolationmode none
attr title "ping tx seq, count"
scalar MeshLAN.host[0].pingApp[4] numOutOfOrderArrivals:last nan
attr interpolationmode none
attr title "ping out-of-order arrivals, last"
scalar MeshLAN.host[0].pingApp[4] numLost:last nan
attr interpolationmode none
attr title "pings lost, last"
scalar MeshLAN.host[0].pingApp[4] rtt:mean 0.0027461658763495
attr interpolationmode none
attr title "ping round-trip time, mean"
attr unit s
scalar MeshLAN.host[0].pingApp[5] "Pings sent" 400
scalar MeshLAN.host[0].pingApp[5] "ping loss rate (%)" 0
scalar MeshLAN.host[0].pingApp[5] "ping out-of-order rate (%)" 0
scalar MeshLAN.host[0].pingApp[5] pingRxSeq:count 301
attr interpolationmode none
attr title "ping rx seq, count"
scalar MeshLAN.host[0].pingApp[5] pingTxSeq:count 301
attr interpolationmode none
attr title "ping tx seq, count"
scalar MeshLAN.host[0].pingApp[5] numOutOfOrderArrivals:last nan
attr interpolationmode none
attr title "ping out-of-order arrivals, last"
scalar MeshLAN.host[0].pingApp[5] numLost:last nan
attr interpolationmode none
attr title "pings lost, last"
scalar MeshLAN.host[0].pingApp[5] rtt:mean 0.0017205956188054
attr interpolationmode none
attr title "ping round-trip time, mean"
attr unit s
scalar MeshLAN.host[0].pingApp[6] "Pings sent" 390
scalar MeshLAN.host[0].pingApp[6] "ping loss rate (%)" 0
scalar MeshLAN.host[0].pingApp[6] "ping out-of-order rate (%)" 0
scalar MeshLAN.host[0].pingApp[6] pingRxSeq:count 295
attr interpolationmode none
attr title "ping rx seq, count"
scalar MeshLAN.host[0].pingApp[6] pingTxSeq:count 295
attr interpolationmode none
attr title "ping tx seq, count"
scalar MeshLAN.host[0].pingApp[6] numOutOfOrderArrivals:last nan
attr interpolationmode none
attr title "ping out-of-order arrivals, last"
scalar MeshLAN.host[0].pingApp[6] numLost:last nan
attr interpolationmode none
attr title "pings lost, last"
scalar MeshLAN.host[0].pingApp[6] rtt:mean 0.0015172749548596
attr interpolationmode none
attr title "ping round-trip time, mean"
attr unit s
scalar MeshLAN.host[0].pingApp[7] "Pings sent" 384
scalar MeshLAN.host[0].pingApp[7] "ping loss rate (%)" 0
scalar MeshLAN.host[0].pingApp[7] "ping out-of-order rate (%)" 0
scalar MeshLAN.host[0].pingApp[7] pingRxSeq:count 288
attr interpolationmode none
attr title "ping rx seq, count"
scalar MeshLAN.host[0].pingApp[7] pingTxSeq:count 288
attr interpolationmode none
attr title "ping tx seq, count"
scalar MeshLAN.host[0].pingApp[7] numOutOfOrderArrivals:last nan
attr interpolationmode none
attr title "ping out-of-order arrivals, last"
scalar MeshLAN.host[0].pingApp[7] numLost:last nan
attr interpolationmode none
attr title "pings lost, last"
scalar MeshLAN.host[0].pingApp[7] rtt:mean 0.0018489831018838
attr interpolationmode none
attr title "ping round-trip time, mean"
attr unit s
scalar MeshLAN.host[0].pingApp[8] "Pings sent" 400
scalar MeshLAN.host[0].pingApp[8] "ping loss rate (%)" 0
scalar MeshLAN.host[0].pingApp[8] "ping out-of-order rate (%)" 0
scalar MeshLAN.host[0].pingApp[8] pingRxSeq:count 298
attr interpolationmode none
attr title "ping rx seq, count"
scalar MeshLAN.host[0].pingApp[8] pingTxSeq:count 298
attr interpolationmode none
attr title "ping tx seq, count"
scalar MeshLAN.host[0].pingApp[8] numOutOfOrderArrivals:last nan
attr interpolationmode none
attr title "ping out-of-order arrivals, last"
scalar MeshLAN.host[0].pingApp[8] numLost:last nan
attr interpolationmode none
attr title "pings lost, last"
scalar MeshLAN.host[0].pingApp[8] rtt:mean 0.0012174368375623
attr interpolationmode none
attr title "ping round-trip time, mean"
attr unit s
scalar MeshLAN.host[0].pingApp[9] "Pings sent" 374
scalar MeshLAN.host[0].pingApp[9] "ping loss rate (%)" 0
scalar MeshLAN.host[0].pingApp[9] "ping out-of-order rate (%)" 0
scalar MeshLAN.host[0].pingApp[9] pingRxSeq:count 285
attr interpolationmode none
attr title "ping rx seq, count"
scalar MeshLAN.host[0].pingApp[9] pingTxSeq:count 284
attr interpolationmode none
attr title "ping tx seq, count"
scalar MeshLAN.host[0].pingApp[9] numOutOfOrderArrivals:last nan
attr interpolationmode none
attr title "ping out-of-order arrivals, last"
scalar MeshLAN.host[0].pingApp[9] numLost:last nan
attr interpolationmode none
attr title "pings lost, last"
scalar MeshLAN.host[0].pingApp[9] rtt:mean 0.0024474776942933
attr interpolationmode none
attr title "ping round-trip time, mean"
attr unit s
scalar MeshLAN.host[0].pingApp[10] "Pings sent" 384
scalar MeshLAN.host[0].pingApp[10] "ping loss rate (%)" 0
scalar MeshLAN.host[0].pingApp[10] "ping out-of-order rate (%)" 0.26041666666667
scalar MeshLAN.host[0].pingApp[10] pingRxSeq:count 283
attr interpolationmode none
attr title "ping rx seq, count"
scalar MeshLAN.host[0].pingApp[10] pingTxSeq:count 283
attr interpolationmode none
attr title "ping tx seq, count"
scalar MeshLAN.host[0].pingApp[10] numOutOfOrderArrivals:last nan
attr interpolationmode none
attr title "ping out-of-order arrivals, last"
scalar MeshLAN.host[0].pingApp[10] numLost:last nan
attr interpolationmode none
attr title "pings lost, last"
scalar MeshLAN.host[0].pingApp[10] rtt:mean 0.0017225630172258
attr interpolationmode none
attr title "ping round-trip time, mean"
attr unit s
scalar MeshLAN.host[0].pingApp[11] "Pings sent" 391
scalar MeshLAN.host[0].pingApp[11] "ping loss rate (%)" 0
scalar MeshLAN.host[0].pingApp[11] "ping out-of-order rate (%)" 0
scalar MeshLAN.host[0].pingApp[11] pingRxSeq:count 288
attr interpolationmode none
attr title "ping rx seq, count"
scalar MeshLAN.host[0].pingApp[11] pingTxSeq:count 288
attr interpolationmode none
attr title "ping tx seq, count"
scalar MeshLAN.host[0].pingApp[11] numOutOfOrderArrivals:last nan
attr interpolationmode none
attr title "ping out-of-order arrivals, last"
scalar MeshLAN.host[0].pingApp[11] numLost:last nan
attr interpolationmode none
attr title "pings lost, last"
scalar MeshLAN.host[0].pingApp[11] rtt:mean 0.0025696241693754
attr interpolationmode none
attr title "ping round-trip time, mean"
attr unit s
scalar MeshLAN.host[0].pingApp[12] "Pings sent" 378
scalar MeshLAN.host[0].pingApp[12] "ping loss rate (%)" 0
scalar MeshLAN.host[0].pingApp[12] "ping out-of-order rate (%)" 0
scalar MeshLAN.host[0].pingApp[12] pingRxSeq:count 284
attr interpolationmode none
attr title "ping rx seq, count"
scalar MeshLAN.host[0].pingApp[12] pingTxSeq:count 284
attr interpolationmode none
attr title "ping tx seq, count"
scalar MeshLAN.host[0].pingApp[12] numOutOfOrderArrivals:last nan
attr interpolationmode none
attr title "ping out-of-order arrivals, last"
scalar MeshLAN.host[0].pingApp[12] numLost:last nan
attr interpolationmode none
attr title "pings lost, last"
scalar MeshLAN.host[0].pingApp[12] rtt:mean 0.0031108622782571
attr interpolationmode none
attr title "ping round-trip time, mean"
attr unit s
scalar MeshLAN.host[0].pingApp[13] "Pings sent" 393
scalar MeshLAN.host[0].pingApp[13] "ping loss rate (%)" 0
scalar MeshLAN.host[0].pingApp[13] "ping out-of-order rate (%)" 0
scalar MeshLAN.host[0].pingApp[13] pingRxSeq:count 300
attr interpolationmode none
attr title "ping rx seq, count"
scalar MeshLAN.host[0].pingApp[13] pingTxSeq:count 300
attr interpolationmode none
attr title "ping tx seq, count"
scalar MeshLAN.host[0].pingApp[13] numOutOfOrderArrivals:last nan
attr interpolationmode none
attr title "ping out-of-order arrivals, last"
scalar MeshLAN.host[0].pingApp[13] numLost:last nan
attr interpolationmode none
attr title "pings lost, last"
scalar MeshLAN.host[0].pingApp[13] rtt:mean 0.0021695199951448
attr interpolationmode none
attr title "ping round-trip time, mean"
attr unit s
scalar MeshLAN.host[0].pingApp[14] "Pings sent" 383
scalar MeshLAN.host[0].pingApp[14] "ping loss rate (%)" 0
scalar MeshLAN.host[0].pingApp[14] "ping out-of-order rate (%)" 0.26109660574413
scalar MeshLAN.host[0].pingApp[14] pingRxSeq:count 287
attr interpolationmode none
attr title "ping rx seq, count"
scalar MeshLAN.host[0].pingApp[14] pingTxSeq:count 287
attr interpolationmode none
attr title "ping tx seq, count"
scalar MeshLAN.host[0].pingApp[14] numOutOfOrderArrivals:last 1
attr interpolationmode none
attr title "ping out-of-order arrivals, last"
scalar MeshLAN.host[0].pingApp[14] numLost:last 0
attr interpolationmode none
attr title "pings lost, last"
scalar MeshLAN.host[0].pingApp[14] rtt:mean 0.0024636982050139
attr interpolationmode none
attr title "ping round-trip time, mean"
attr unit s
scalar MeshLAN.host[0].pingApp[15] "Pings sent" 370
scalar MeshLAN.host[0].pingApp[15] "ping loss rate (%)" 0
scalar MeshLAN.host[0].pingApp[15] "ping out-of-order rate (%)" 0
scalar MeshLAN.host[0].pingApp[15] pingRxSeq:count 282
attr interpolationmode none
attr title "ping rx seq, count"
scalar MeshLAN.host[0].pingApp[15] pingTxSeq:count 282
attr interpolationmode none
attr title "ping tx seq, count"
scalar MeshLAN.host[0].pingApp[15] numOutOfOrderArrivals:last nan
attr interpolationmode none
attr title "ping out-of-order arrivals, last"
scalar MeshLAN.host[0].pingApp[15] numLost:last nan
attr interpolationmode none
attr title "pings lost, last"
scalar MeshLAN.host[0].pingApp[15] rtt:mean 0.0016811380926619
attr interpolationmode none
attr title "ping round-trip time, mean"
attr unit s
scalar MeshLAN.host[0].pingApp[16] "Pings sent" 390
scalar MeshLAN.host[0].pingApp[16] "ping loss rate (%)" 0
scalar MeshLAN.host[0].pingApp[16] "ping out-of-order rate (%)" 0
scalar MeshLAN.host[0].pingApp[16] pingRxSeq:count 293
attr interpolationmode none
attr title "ping rx seq, count"
scalar MeshLAN.host[0].pingApp[16] pingTxSeq:count 293
attr interpolationmode none
attr title "ping tx seq, count"
scalar MeshLAN.host[0].pingApp[16] numOutOfOrderArrivals:last nan
attr interpolationmode none
attr title "ping out-of-order arrivals, last"
scalar MeshLAN.host[0].pingApp[16] numLost:last nan
attr interpolationmode none
attr title "pings lost, last"
scalar MeshLAN.host[0].pingApp[16] rtt:mean 0.0023158319361781
attr interpolationmode none
attr title "ping round-trip time, mean"
attr unit s
scalar MeshLAN.host[0].pingApp[17] "Pings sent" 398
scalar MeshLAN.host[0].pingApp[17] "ping loss rate (%)" 0
scalar MeshLAN.host[0].pingApp[17] "ping out-of-order rate (%)" 0
scalar MeshLAN.host[0].pingApp[17] pingRxSeq:count 303
attr interpolationmode none
attr title "ping rx seq, count"
scalar MeshLAN.host[0].pingApp[17] pingTxSeq:count 303
attr interpolationmode none
attr title "ping tx seq, count"
scalar MeshLAN.host[0].pingApp[17] numOutOfOrderArrivals:last nan
attr interpolationmode none
attr title "ping out-of-order arrivals, last"
scalar MeshLAN.host[0].pingApp[17] numLost:last nan
attr interpolationmode none
attr title "pings lost, last"
scalar MeshLAN.host[0].pingApp[17] rtt:mean 0.002381615263292
attr interpolationmode none
attr title "ping round-trip time, mean"
attr unit s
scalar MeshLAN.host[0].pingApp[18] "Pings sent" 391
scalar MeshLAN.host[0].pingApp[18] "ping loss rate (%)" 0
scalar MeshLAN.host[0].pingApp[18] "ping out-of-order rate (%)" 0.25575447570332
scalar MeshLAN.host[0].pingApp[18] pingRxSeq:count 295
attr interpolationmode none
attr title "ping rx seq, count"
scalar MeshLAN.host[0].pingApp[18] pingTxSeq:count 295
attr interpolationmode none
attr title "ping tx seq, count"
scalar MeshLAN.host[0].pingApp[18] numOutOfOrderArrivals:last 1
attr interpolationmode none
attr title "ping out-of-order arrivals, last"
scalar MeshLAN.host[0].pingApp[18] numLost:last 0
attr interpolationmode none
attr title "pings lost, last"
scalar MeshLAN.host[0].pingApp[18] rtt:mean 0.00073931815864966
attr interpolationmode none
attr title "ping round-trip time, mean"
attr unit s
scalar MeshLAN.host[0].pingApp[19] "Pings sent" 387
scalar MeshLAN.host[0].pingApp[19] "ping loss rate (%)" 0
scalar MeshLAN.host[0].pingApp[19] "ping out-of-order rate (%)" 0
scalar MeshLAN.host[0].pingApp[19] pingRxSeq:count 289
attr interpolationmode none
attr title "ping rx seq, count"
scalar MeshLAN.host[0].pingApp[19] pingTxSeq:count 289
attr interpolationmode none
attr title "ping tx seq, count"
scalar MeshLAN.host[0].pingApp[19] numOutOfOrderArrivals:last nan
attr interpolationmode none
attr title "ping out-of-order arrivals, last"
scalar MeshLAN.host[0].pingApp[19] numLost:last nan
attr interpolationmode none
attr title "pings lost, last"
scalar MeshLAN.host[0].pingApp[19] rtt:mean 0.0010547067708905
attr interpolationmode none
attr title "ping round-trip time, mean"
attr unit s
scalar MeshLAN.host[0].pingApp[20] "Pings sent" 383
scalar MeshLAN.host[0].pingApp[20] "ping loss rate (%)" 0
scalar MeshLAN.host[0].pingApp[20] "ping out-of-order rate (%)" 0
scalar MeshLAN.host[0].pingApp[20] pingRxSeq:count 286
attr interpolationmode none
attr title "ping rx seq, count"
scalar MeshLAN.host[0].pingApp[20] pingTxSeq:count 286
attr interpolationmode none
attr title "ping tx seq, count"
scalar MeshLAN.host[0].pingApp[20] numOutOfOrderArrivals:last nan
attr interpolationmode none
attr title "ping out-of-order arrivals, last"
scalar MeshLAN.host[0].pingApp[20] numLost:last nan
attr interpolationmode none
attr title "pings lost, last"
scalar MeshLAN.host[0].pingApp[20] rtt:mean 0.0015951845921123
attr interpolationmode none
attr title "ping round-trip time, mean"
attr unit s
scalar MeshLAN.host[0].pingApp[21] "Pings sent" 384
scalar MeshLAN.host[0].pingApp[21] "ping loss rate (%)" 0
scalar MeshLAN.host[0].pingApp[21] "ping out-of-order rate (%)" 0
scalar MeshLAN.host[0].pingApp[21] pingRxSeq:count 285
attr interpolationmode none
attr title "ping rx seq, count"
scalar MeshLAN.host[0].pingApp[21] pingTxSeq:count 285
attr interpolationmode none
attr title "ping tx seq, count"
scalar MeshLAN.host[0].pingApp[21] numOutOfOrderArrivals:last nan
attr interpolationmode none
attr title "ping out-of-order arrivals, last"
scalar MeshLAN.host[0].pingApp[21] numLost:last nan
attr interpolationmode none
attr title "pings lost, last"
scalar MeshLAN.host[0].pingApp[21] rtt:mean 0.0022592565357562
attr interpolationmode none
attr title "ping round-trip time, mean"
attr unit s
scalar MeshLAN.host[0].pingApp[22] "Pings sent" 388
scalar MeshLAN.host[0].pingApp[22] "ping loss rate (%)" 0
scalar MeshLAN.host[0].pingApp[22] "ping out-of-order rate (%)" 0
scalar MeshLAN.host[0].pingApp[22] pingRxSeq:count 296
attr interpolationmode none
attr title "ping rx seq, count"
scalar MeshLAN.host[0].pingApp[22] pingTxSeq:count 296
attr interpolationmode none
attr title "ping tx seq, count"
scalar MeshLAN.host[0].pingApp[22] numOutOfOrderArrivals:last nan
attr interpolationmode none
attr title "ping out-of-order arrivals, last"
scalar MeshLAN.host[0].pingApp[22] numLost:last nan
attr interpolationmode none
attr title "pings lost, last"
scalar MeshLAN.host[0].pingApp[22] rtt:mean 0.0011825352988328
attr interpolationmode none
attr title "ping round-trip time, mean"
attr unit s
scalar MeshLAN.host[0].pingApp[23] "Pings sent" 366
scalar MeshLAN.host[0].pingApp[23] "ping loss rate (%)" 0
scalar MeshLAN.host[0].pingApp[23] "ping out-of-order rate (%)" 0
scalar MeshLAN.host[0].pingApp[23] pingRxSeq:count 276
attr interpolationmode none
attr title "ping rx seq, count"
scalar MeshLAN.host[0].pingApp[23] pingTxSeq:count 276
attr interpolationmode none
attr title "ping tx seq, count"
scalar MeshLAN.host[0].pingApp[23] numOutOfOrderArrivals:last nan
attr interpolationmode none
attr title "ping out-of-order arrivals, last"
scalar MeshLAN.host[0].pingApp[23] numLost:last nan
attr interpolationmode none
attr title "pings lost, last"
scalar MeshLAN.host[0].pingApp[23] rtt:mean 0.0025211239566168
attr interpolationmode none
attr title "ping round-trip time, mean"
attr unit s
scalar MeshLAN.host[0].pingApp[24] "Pings sent" 380
scalar MeshLAN.host[0].pingApp[24] "ping loss rate (%)" 0
scalar MeshLAN.host[0].pingApp[24] "ping out-of-order rate (%)" 0
scalar MeshLAN.host[0].pingApp[24] pingRxSeq:count 289
attr interpolationmode none
attr title "ping rx seq, count"
scalar MeshLAN.host[0].pingApp[24] pingTxSeq:count 289
attr interpolationmode none
attr title "ping tx seq, count"
scalar MeshLAN.host[0].pingApp[24] numOutOfOrderArrivals:last nan
attr interpolationmode none
attr title "ping out-of-order arrivals, last"
scalar MeshLAN.host[0].pingApp[24] numLost:last nan
attr interpolationmode none
attr title "pings lost, last"
scalar MeshLAN.host[0].pingApp[24] rtt:mean 0.0015615262192797
attr interpolationmode none
attr title "ping round-trip time, mean"
attr unit s
scalar MeshLAN.host[0].pingApp[25] "Pings sent" 379
scalar MeshLAN.host[0].pingApp[25] "ping loss rate (%)" 0
scalar MeshLAN.host[0].pingApp[25] "ping out-of-order rate (%)" 0
scalar MeshLAN.host[0].pingApp[25] pingRxSeq:count 287
attr interpolationmode none
attr title "ping rx seq, count"
scalar MeshLAN.host[0].pingApp[25] pingTxSeq:count 287
attr interpolationmode none
attr title "ping tx seq, count"
scalar MeshLAN.host[0].pingApp[25] numOutOfOrderArrivals:last nan
attr interpolationmode none
attr title "ping out-of-order arrivals, last"
scalar MeshLAN.host[0].pingApp[25] numLost:last nan
attr interpolationmode none
attr title "pings lost, last"
scalar MeshLAN.host[0].pingApp[25] rtt:mean 0.0030408095399755
attr interpolationmode none
attr title "ping round-trip time, mean"
attr unit s
scalar MeshLAN.host[0].pingApp[26] "Pings sent" 389
scalar MeshLAN.host[0].pingApp[26] "ping loss rate (%)" 0
scalar MeshLAN.host[0].pingApp[26] "ping out-of-order rate (%)" 0.25706940874036
scalar MeshLAN.host[0].pingApp[26] pingRxSeq:count 294
attr interpolationmode none
attr title "ping rx seq, count"
scalar MeshLAN.host[0].pingApp[26] pingTxSeq:count 294
attr interpolationmode none
attr title "ping tx seq, count"
scalar MeshLAN.host[0].pingApp[26] numOutOfOrderArrivals:last 1
attr interpolationmode none
attr title "ping out-of-order arrivals, last"
scalar MeshLAN.host[0].pingApp[26] numLost:last 0
attr interpolationmode none
attr title "pings lost, last"
scalar MeshLAN.host[0].pingApp[26] rtt:mean 0.0017967461030239
attr interpolationmode none
attr title "ping round-trip time, mean"
attr unit s
scalar MeshLAN.host[0].pingApp[27] "Pings sent" 386
scalar MeshLAN.host[0].pingApp[27] "ping loss rate (%)" 0
scalar MeshLAN.host[0].pingApp[27] "ping out-of-order rate (%)" 0
scalar MeshLAN.host[0].pingApp[27] pingRxSeq:count 288
attr interpolationmode none
attr title "ping rx seq, count"
scalar MeshLAN.host[0].pingApp[27] pingTxSeq:count 288
attr interpolationmode none
attr title "ping tx seq, count"
scalar MeshLAN.host[0].pingApp[27] numOutOfOrderArrivals:last nan
attr interpolationmode none
attr title "ping out-of-order arrivals, last"
scalar MeshLAN.host[0].pingApp[27] numLost:last nan
attr interpolationmode none
attr title "pings lost, last"
scalar MeshLAN.host[0].pingApp[27] rtt:mean 0.0017439097726338
attr interpolationmode none
attr title "ping round-trip time, mean"
attr unit s
scalar MeshLAN.host[1].networkLayer.arp sentReply:count 0
attr title "ARP replies sent, count"
scalar MeshLAN.host[1].networkLayer.arp sentReq:count 0
attr title "ARP request sent, count"
scalar MeshLAN.host[1].networkLayer.arp failedARPResolution:count 0
attr title "ARP failed resolutions, count"
scalar MeshLAN.host[1].networkLayer.arp completedARPResolution:count 0
attr title "ARP completed resolutions, count"
scalar MeshLAN.host[1].networkLayer.arp initiatedARPResolution:count 0
attr title "ARP initiated resolutions, count"
scalar MeshLAN.host[1].lo0.lo droppedPkBitError:count 0
attr interpolationmode none
attr source dropPkBitError
attr title "packets dropped/bit error, count"
scalar MeshLAN.host[1].lo0.lo droppedPkBitError:sum(packetBytes) 0
attr interpolationmode none
attr source dropPkBitError
attr title "packets dropped/bit error, sum(packetBytes)"
scalar MeshLAN.host[1].lo0.lo rcvdPkFromHL:count 158
attr interpolationmode none
attr source packetReceivedFromUpper
attr title "packets received from higher layer, count"
scalar MeshLAN.host[1].lo0.lo rcvdPkFromHL:sum(packetBytes) 78782
attr interpolationmode none
attr source packetReceivedFromUpper
attr title "packets received from higher layer, sum(packetBytes)"
scalar MeshLAN.host[1].lo0.lo passedUpPk:count 158
attr interpolationmode none
attr source packetSentToUpper
attr title "packets passed to higher layer, count"
scalar MeshLAN.host[1].lo0.lo passedUpPk:sum(packetBytes) 78782
attr interpolationmode none
attr source packetSentToUpper
attr title "packets passed to higher layer, sum(packetBytes)"
scalar MeshLAN.host[1].eth[0].queue.pauseQueue queueLength:max nan
attr interpolationmode sample-hold
attr title "queue length, max"
scalar MeshLAN.host[1].eth[0].queue.pauseQueue queueLength:timeavg nan
attr interpolationmode sample-hold
attr title "queue length, timeavg"
statistic MeshLAN.host[1].eth[0].queue.pauseQueue queueingTime:histogram
field count 0
field mean nan
field stddev nan
field min nan
field max nan
field sum 0
field sqrsum 0
attr interpolationmode none
attr title "queueing time, histogram"
bin	-inf	0
bin	-0.5	0
bin	-0.46666666666667	0
bin	-0.43333333333333	0
bin	-0.4	0
bin	-0.36666666666667	0
bin	-0.33333333333333	0
bin	-0.3	0
bin	-0.26666666666667	0
bin	-0.23333333333333	0
bin	-0.2	0
bin	-0.16666666666667	0
bin	-0.13333333333333	0
bin	-0.1	0
bin	-0.066666666666667	0
bin	-0.033333333333333	0
bin	0	0
bin	0.033333333333333	0
bin	0.066666666666667	0
bin	0.1	0
bin	0.13333333333333	0
bin	0.16666666666667	0
bin	0.2	0
bin	0.23333333333333	0
bin	0.26666666666667	0
bin	0.3	0
bin	0.33333333333333	0
bin	0.36666666666667	0
bin	0.4	0
bin	0.43333333333333	0
bin	0.46666666666667	0
bin	0.5	0
scalar MeshLAN.host[1].eth[0].queue.pauseQueue dropPk:count 0
attr interpolationmode none
attr source dropPkByQueue
attr title "dropped packets, count"
scalar MeshLAN.host[1].eth[0].queue.pauseQueue dropPk:sum(packetBytes) 0
attr interpolationmode none
attr source dropPkByQueue
attr title "dropped packets, sum(packetBytes)"
scalar MeshLAN.host[1].eth[0].queue.pauseQueue rcvdPk:count 0
attr interpolationmode none
attr title "received packets, count"
scalar MeshLAN.host[1].eth[0].queue.pauseQueue rcvdPk:sum(packetBytes) 0
attr interpolationmode none
attr title "received packets, sum(packetBytes)"
scalar MeshLAN.host[1].eth[0].queue.dataQueue queueLength:max 4
attr interpolationmode sample-hold
attr title "queue length, max"
scalar MeshLAN.host[1].eth[0].queue.dataQueue queueLength:timeavg 0.044244777635945
attr interpolationmode sample-hold
attr title "queue length, timeavg"
statistic MeshLAN.host[1].eth[0].queue.dataQueue queueingTime:histogram
field count 8746
field mean 7.5879528870798e-005
field stddev 0.00018029660489148
field min 0
field max 0.001873185528
field sum 0.663642359504
field sqrsum 0.00033462941043388
attr interpolationmode none
attr title "queueing time, histogram"
bin	-inf	0
bin	-0.000269537619	0
bin	-0.0002335992698	0
bin	-0.0001976609206	0
bin	-0.0001617225714	0
bin	-0.0001257842222	0
bin	-8.9845873e-005	0
bin	-5.39075238e-005	0
bin	-1.79691746e-005	6740
bin	1.79691746e-005	147
bin	5.39075238e-005	141
bin	8.9845873e-005	138
bin	0.0001257842222	163
bin	0.0001617225714	121
bin	0.0001976609206	119
bin	0.0002335992698	115
bin	0.000269537619	126
bin	0.0003054759682	97
bin	0.0003414143174	108
bin	0.0003773526666	104
bin	0.0004132910158	95
bin	0.000449229365	95
bin	0.0004851677142	66
bin	0.0005211060634	68
bin	0.0005570444126	57
bin	0.0005929827618	42
bin	0.000628921111	26
bin	0.0006648594602	16
bin	0.0007007978094	22
bin	0.0007367361586	19
bin	0.0007726745078	13
bin	0.000808612857	108
scalar MeshLAN.host[1].eth[0].queue.dataQueue dropPk:count 0
attr interpolationmode none
attr source dropPkByQueue
attr title "dropped packets, count"
scalar MeshLAN.host[1].eth[0].queue.dataQueue dropPk:sum(packetBytes) 0
attr interpolationmode none
attr source dropPkByQueue
attr title "dropped packets, sum(packetBytes)"
scalar MeshLAN.host[1].eth[0].queue.dataQueue rcvdPk:count 8746
attr interpolationmode none
attr title "received packets, count"
scalar MeshLAN.host[1].eth[0].queue.dataQueue rcvdPk:sum(packetBytes) 4402252
attr interpolationmode none
attr title "received packets, sum(packetBytes)"
scalar MeshLAN.host[1].eth[0].mac "simulated time" 20
scalar MeshLAN.host[1].eth[0].mac full-duplex 1
scalar MeshLAN.host[1].eth[0].mac "frames/sec sent" 579.1
scalar MeshLAN.host[1].eth[0].mac "frames/sec rcvd" 579.1
scalar MeshLAN.host[1].eth[0].mac "bits/sec sent" 2331884
scalar MeshLAN.host[1].eth[0].mac "bits/sec rcvd" 2331884
scalar MeshLAN.host[1].eth[0].mac "rx channel idle (%)" 76.310536
scalar MeshLAN.host[1].eth[0].mac "rx channel utilization (%)" 23.689464
scalar MeshLAN.host[1].eth[0].mac rxPkFromHL:count 8746
attr interpolationmode none
attr source rxPkFromHL
attr title "packet bytes from higher layer, count"
scalar MeshLAN.host[1].eth[0].mac rxPkFromHL:sum(packetBytes) 4402252
attr interpolationmode none
attr source rxPkFromHL
attr title "packet bytes from higher layer, sum(packetBytes)"
scalar MeshLAN.host[1].eth[0].mac rxPausePkUnits:count 0
attr interpolationmode none
attr title "pause units received, count"
scalar MeshLAN.host[1].eth[0].mac rxPausePkUnits:sum 0
attr interpolationmode none
attr title "pause units received, sum"
scalar MeshLAN.host[1].eth[0].mac txPausePkUnits:count 0
attr interpolationmode none
attr title "pause units sent, count"
scalar MeshLAN.host[1].eth[0].mac txPausePkUnits:sum 0
attr interpolationmode none
attr title "pause units sent, sum"
scalar MeshLAN.host[1].eth[0].mac txPk:count 8746
attr interpolationmode none
attr source txPk
attr title "packets transmitted, count"
scalar MeshLAN.host[1].eth[0].mac txPk:sum(packetBytes) 4402252
attr interpolationmode none
attr source txPk
attr title "packets transmitted, sum(packetBytes)"
scalar MeshLAN.host[1].eth[0].mac droppedPkNotForUs:count 0
attr interpolationmode none
attr source dropPkNotForUs
attr title "packets dropped/not for us, count"
scalar MeshLAN.host[1].eth[0].mac droppedPkNotForUs:sum(packetBytes) 0
attr interpolationmode none
attr source dropPkNotForUs
attr title "packets dropped/not for us, sum(packetBytes)"
scalar MeshLAN.host[1].eth[0].mac droppedPkBitError:count 0
attr interpolationmode none
attr source dropPkBitError
attr title "packets dropped/bit error, count"
scalar MeshLAN.host[1].eth[0].mac droppedPkBitError:sum(packetBytes) 0
attr interpolationmode none
attr source dropPkBitError
attr title "packets dropped/bit error, sum(packetBytes)"
scalar MeshLAN.host[1].eth[0].mac droppedPkIfaceDown:count 0
attr interpolationmode none
attr source dropPkIfaceDown
attr title "packets dropped/interface down, count"
scalar MeshLAN.host[1].eth[0].mac droppedPkIfaceDown:sum(packetBytes) 0
attr interpolationmode none
attr source dropPkIfaceDown
attr title "packets dropped/interface down, sum(packetBytes)"
scalar MeshLAN.host[1].eth[0].mac rxPkOk:count 8746
attr interpolationmode none
attr source rxPkOk
attr title "packets received OK, count"
scalar MeshLAN.host[1].eth[0].mac rxPkOk:sum(packetBytes) 4402252
attr interpolationmode none
attr source rxPkOk
attr title "packets received OK, sum(packetBytes)"
scalar MeshLAN.host[1].eth[0].mac passedUpPk:count 8746
attr interpolationmode none
attr source packetSentToUpper
attr title "packets passed to higher layer, count"
scalar MeshLAN.host[1].eth[0].mac passedUpPk:sum(packetBytes) 4402252
attr interpolationmode none
attr source packetSentToUpper
attr title "packets passed to higher layer, sum(packetBytes)"
scalar MeshLAN.host[1].eth[0].encap pauseSent:count 0
attr title "pause sent, count"
scalar MeshLAN.host[1].eth[0].encap pauseSent:sum 0
attr title "pause sent, sum"
scalar MeshLAN.host[1].eth[0].encap decapPk:count 8746
attr interpolationmode none
attr source decapPk
attr title "packets decapsulated, count"
scalar MeshLAN.host[1].eth[0].encap decapPk:sum(packetBytes) 4244764
attr interpolationmode none
attr source decapPk
attr title "packets decapsulated, sum(packetBytes)"
scalar MeshLAN.host[1].eth[0].encap encapPk:count 8746
attr interpolationmode none
attr source encapPk
attr title "packets encapsulated, count"
scalar MeshLAN.host[1].eth[0].encap encapPk:sum(packetBytes) 4244764
attr interpolationmode none
attr source encapPk
attr title "packets encapsulated, sum(packetBytes)"
scalar MeshLAN.host[1].pingApp[0] "Pings sent" 377
scalar MeshLAN.host[1].pingApp[0] "ping loss rate (%)" 0
scalar MeshLAN.host[1].pingApp[0] "ping out-of-order rate (%)" 0
scalar MeshLAN.host[1].pingApp[0] pingRxSeq:count 283
attr interpolationmode none
attr title "ping rx seq, count"
scalar MeshLAN.host[1].pingApp[0] pingTxSeq:count 283
attr interpolationmode none
attr title "ping tx seq, count"
scalar MeshLAN.host[1].pingApp[0] numOutOfOrderArrivals:last nan
attr interpolationmode none
attr title "ping out-of-order arrivals, last"
scalar MeshLAN.host[1].pingApp[0] numLost:last nan
attr interpolationmode none
attr title "pings lost, last"
scalar MeshLAN.host[1].pingApp[0] rtt:mean 0.0024287476880534
attr interpolationmode none
attr title "ping round-trip time, mean"
attr unit s
scalar MeshLAN.host[1].pingApp[1] "Pings sent" 396
scalar MeshLAN.host[1].pingApp[1] "ping loss rate (%)" 0
scalar MeshLAN.host[1].pingApp[1] "ping out-of-order rate (%)" 0
scalar MeshLAN.host[1].pingApp[1] pingRxSeq:count 299
attr interpolationmode none
attr title "ping rx seq, count"
scalar MeshLAN.host[1].pingApp[1] pingTxSeq:count 299
attr interpolationmode none
attr title "ping tx seq, count"
scalar MeshLAN.host[1].pingApp[1] numOutOfOrderArrivals:last nan
attr interpolationmode none
attr title "ping out-of-order arrivals, last"
scalar MeshLAN.host[1].pingApp[1] numLost:last nan
attr interpolationmode none
attr title "pings lost, last"
scalar MeshLAN.host[1].pingApp[1] rtt:mean 0.002149759031699
attr interpolationmode none
attr title "ping round-trip time, mean"
attr unit s
scalar MeshLAN.host[1].pingApp[2] "Pings sent" 396
scalar MeshLAN.host[1].pingApp[2] "ping loss rate (%)" 0
scalar MeshLAN.host[1].pingApp[2] "ping out-of-order rate (%)" 0
scalar MeshLAN.host[1].pingApp[2] pingRxSeq:count 293
attr interpolationmode none
attr title "ping rx seq, count"
scalar MeshLAN.host[1].pingApp[2] pingTxSeq:count 293
attr interpolationmode none
attr title "ping tx seq, count"
scalar MeshLAN.host[1].pingApp[2] numOutOfOrderArrivals:last nan
attr interpolationmode none
attr title "ping out-of-order arrivals, last"
scalar MeshLAN.host[1].pingApp[2] numLost:last nan
attr interpolationmode none
attr title "pings lost, last"
scalar MeshLAN.host[1].pingApp[2] rtt:mean 0.0026981715478328
attr interpolationmode none
attr title "ping round-trip time, mean"
attr unit s
scalar MeshLAN.host[1].pingApp[3] "Pings sent" 368
scalar MeshLAN.host[1].pingApp[3] "ping loss rate (%)" 0
scalar MeshLAN.host[1].pingApp[3] "ping out-of-order rate (%)" 0
scalar MeshLAN.host[1].pingApp[3] pingRxSeq:count 289
attr interpolationmode none
attr title "ping rx seq, count"
scalar MeshLAN.host[1].pingApp[3] pingTxSeq:count 289
attr interpolationmode none
attr title "ping tx seq, count"
scalar MeshLAN.host[1].pingApp[3] numOutOfOrderArrivals:last nan
attr interpolationmode none
attr title "ping out-of-order arrivals, last"
scalar MeshLAN.host[1].pingApp[3] numLost:last nan
attr interpolationmode none
attr title "pings lost, last"
scalar MeshLAN.host[1].pingApp[3] rtt:mean 0.001180147765766
attr interpolationmode none
attr title "ping round-trip time, mean"
attr unit s
scalar MeshLAN.host[1].pingApp[4] "Pings sent" 379
scalar MeshLAN.host[1].pingApp[4] "ping loss rate (%)" 0
scalar MeshLAN.host[1].pingApp[4] "ping out-of-order rate (%)" 0
scalar MeshLAN.host[1].pingApp[4] pingRxSeq:count 292
attr interpolationmode none
attr title "ping rx seq, count"
scalar MeshLAN.host[1].pingApp[4] pingTxSeq:count 292
attr interpolationmode none
attr title "ping tx seq, count"
scalar MeshLAN.host[1].pingApp[4] numOutOfOrderArrivals:last nan
attr interpolationmode none
attr title "ping out-of-order arrivals, last"
scalar MeshLAN.host[1].pingApp[4] numLost:last nan
attr interpolationmode none
attr title "pings lost, last"
scalar MeshLAN.host[1].pingApp[4] rtt:mean 0.0030305937247474
attr interpolationmode none
attr title "ping round-trip time, mean"
attr unit s
scalar MeshLAN.host[1].pingApp[5] "Pings sent" 386
scalar MeshLAN.host[1].pingApp[5] "ping loss rate (%)" 0
scalar MeshLAN.host[1].pingApp[5] "ping out-of-order rate (%)" 0
scalar MeshLAN.host[1].pingApp[5] pingRxSeq:count 292
attr interpolationmode none
attr title "ping rx seq, count"
scalar MeshLAN.host[1].pingApp[5] pingTxSeq:count 292
attr interpolationmode none
attr title "ping tx seq, count"
scalar MeshLAN.host[1].pingApp[5] numOutOfOrderArrivals:last nan
attr interpolationmode none
attr title "ping out-of-order arrivals, last"
scalar MeshLAN.host[1].pingApp[5] numLost:last nan
attr interpolationmode none
attr title "pings lost, last"
scalar MeshLAN.host[1].pingApp[5] rtt:mean 0.0022331318944055
attr interpolationmode none
attr title "ping round-trip time, mean"
attr unit s
scalar MeshLAN.host[1].pingApp[6] "Pings sent" 374
scalar MeshLAN.host[1].pingApp[6] "ping loss rate (%)" 0
scalar MeshLAN.host[1].pingApp[6] "ping out-of-order rate (%)" 0
scalar MeshLAN.host[1].pingApp[6] pingRxSeq:count 285
attr interpolationmode none
attr title "ping rx seq, count"
scalar MeshLAN.host[1].pingApp[6] pingTxSeq:count 285
attr interpolationmode none
attr title "ping tx seq, count"
scalar MeshLAN.host[1].pingApp[6] numOutOfOrderArrivals:last nan
attr interpolationmode none
attr title "ping out-of-order arrivals, last"
scalar MeshLAN.host[1].pingApp[6] numLost:last nan
attr interpolationmode none
attr title "pings lost, last"
scalar MeshLAN.host[1].pingApp[6] rtt:mean 0.0028276678908156
attr interpolationmode none
attr title "ping round-trip time, mean"
attr unit s
scalar MeshLAN.host[1].pingApp[7] "Pings sent" 383
scalar MeshLAN.host[1].pingApp[7] "ping loss rate (%)" 0
scalar MeshLAN.host[1].pingApp[7] "ping out-of-order rate (%)" 0
scalar MeshLAN.host[1].pingApp[7] pingRxSeq:count 285
attr interpolationmode none
attr title "ping rx seq, count"
scalar MeshLAN.host[1].pingApp[7] pingTxSeq:count 285
attr interpolationmode none
attr title "ping tx seq, count"
scalar MeshLAN.host[1].pingApp[7] numOutOfOrderArrivals:last nan
attr interpolationmode none
attr title "ping out-of-order arrivals, last"
scalar MeshLAN.host[1].pingApp[7] numLost:last nan
attr interpolationmode none
attr title "pings lost, last"
scalar MeshLAN.host[1].pingApp[7] rtt:mean 0.0023588329078043
attr interpolationmode none
attr title "ping round-trip time, mean"
attr unit s
scalar MeshLAN.host[1].pingApp[8] "Pings sent" 387
scalar MeshLAN.host[1].pingApp[8] "ping loss rate (%)" 0
scalar MeshLAN.host[1].pingApp[8] "ping out-of-order rate (%)" 0.25839793281654
scalar MeshLAN.host[1].pingApp[8] pingRxSeq:count 290
attr interpolationmode none
attr title "ping rx seq, count"
scalar MeshLAN.host[1].pingApp[8] pingTxSeq:count 290
attr interpolationmode none
attr title "ping tx seq, count"
scalar MeshLAN.host[1].pingApp[8] numOutOfOrderArrivals:last 1
attr interpolationmode none
attr title "ping out-of-order arrivals, last"
scalar MeshLAN.host[1].pingApp[8] numLost:last 0
attr interpolationmode none
attr title "pings lost, last"
scalar MeshLAN.host[1].pingApp[8] rtt:mean 0.001244120171128
attr interpolationmode none
attr title "ping round-trip time, mean"
attr unit s
scalar MeshLAN.host[1].pingApp[9] "Pings sent" 394
scalar MeshLAN.host[1].pingApp[9] "ping loss rate (%)" 0
scalar MeshLAN.host[1].pingApp[9] "ping out-of-order rate (%)" 0
scalar MeshLAN.host[1].pingApp[9] pingRxSeq:count 295
attr interpolationmode none
attr title "ping rx seq, count"
scalar MeshLAN.host[1].pingApp[9] pingTxSeq:count 295
attr interpolationmode none
attr title "ping tx seq, count"
scalar MeshLAN.host[1].pingApp[9] numOutOfOrderArrivals:last nan
attr interpolationmode none
attr title "ping out-of-order arrivals, last"
scalar MeshLAN.host[1].pingApp[9] numLost:last nan
attr interpolationmode none
attr title "pings lost, last"
scalar MeshLAN.host[1].pingApp[9] rtt:mean 0.00086775289786054
attr interpolationmode none
attr title "ping round-trip time, mean"
attr unit s
scalar MeshLAN.host[1].pingApp[10] "Pings sent" 398
scalar MeshLAN.host[1].pingApp[10] "ping loss rate (%)" 0
scalar MeshLAN.host[1].pingApp[10] "ping out-of-order rate (%)" 0
scalar MeshLAN.host[1].pingApp[10] pingRxSeq:count 309
attr interpolationmode none
attr title "ping rx seq, count"
scalar MeshLAN.host[1].pingApp[10] pingTxSeq:count 309
attr interpolationmode none
attr title "ping tx seq, count"
scalar MeshLAN.host[1].pingApp[10] numOutOfOrderArrivals:last nan
attr interpolationmode none
attr title "ping out-of-order arrivals, last"
scalar MeshLAN.host[1].pingApp[10] numLost:last nan
attr interpolationmode none
attr title "pings lost, last"
scalar MeshLAN.host[1].pingApp[10] rtt:mean 0.0011489400570714
attr interpolationmode none
attr title "ping round-trip time, mean"
attr unit s
scalar MeshLAN.host[1].pingApp[11] "Pings sent" 402
scalar MeshLAN.host[1].pingApp[11] "ping loss rate (%)" 0
scalar MeshLAN.host[1].pingApp[11] "ping out-of-order rate (%)" 0
scalar MeshLAN.host[1].pingApp[11] pingRxSeq:count 299
attr interpolationmode none
attr title "ping rx seq, count"
scalar MeshLAN.host[1].pingApp[11] pingTxSeq:count 299
attr interpolationmode none
attr title "ping tx seq, count"
scalar MeshLAN.host[1].pingApp[11] numOutOfOrderArrivals:last nan
attr interpolationmode none
attr title "ping out-of-order arrivals, last"
scalar MeshLAN.host[1].pingApp[11] numLost:last nan
attr interpolationmode none
attr title "pings lost, last"
scalar MeshLAN.host[1].pingApp[11] rtt:mean 0.0013798115586791
attr interpolationmode none
attr title "ping round-trip time, mean"
attr unit s
scalar MeshLAN.host[1].pingApp[12] "Pings sent" 391
scalar MeshLAN.host[1].pingApp[12] "ping loss rate (%)" 0
scalar MeshLAN.host[1].pingApp[12] "ping out-of-order rate (%)" 0
scalar MeshLAN.host[1].pingApp[12] pingRxSeq:count 296
attr interpolationmode none
attr title "ping rx seq, count"
scalar MeshLAN.host[1].pingApp[12] pingTxSeq:count 296
attr interpolationmode none
attr title "ping tx seq, count"
scalar MeshLAN.host[1].pingApp[12] numOutOfOrderArrivals:last nan
attr interpolationmode none
attr title "ping out-of-order arrivals, last"
scalar MeshLAN.host[1].pingApp[12] numLost:last nan
attr interpolationmode none
attr title "pings lost, last"
scalar MeshLAN.host[1].pingApp[12] rtt:mean 0.0012044496405729
attr interpolationmode none
attr title "ping round-trip time, mean"
attr unit s
scalar MeshLAN.host[1].pingApp[13] "Pings sent" 391
scalar MeshLAN.host[1].pingApp[13] "ping loss rate (%)" 0
scalar MeshLAN.host[1].pingApp[13] "ping out-of-order rate (%)" 0.25575447570332
scalar MeshLAN.host[1].pingApp[13] pingRxSeq:count 291
attr interpolationmode none
attr title "ping rx seq, count"
scalar MeshLAN.host[1].pingApp[13] pingTxSeq:count 291
attr interpolationmode none
attr title "ping tx seq, count"
scalar MeshLAN.host[1].pingApp[13] numOutOfOrderArrivals:last nan
attr interpolationmode none
attr title "ping out-of-order arrivals, last"
scalar MeshLAN.host[1].pingApp[13] numLost:last nan
attr interpolationmode none
attr title "pings lost, last"
scalar MeshLAN.host[1].pingApp[13] rtt:mean 0.0016330921554549
attr interpolationmode none
attr title "ping round-trip time, mean"
attr unit s
scalar MeshLAN.host[1].pingApp[14] "Pings sent" 377
scalar MeshLAN.host[1].pingApp[14] "ping loss rate (%)" 0
scalar MeshLAN.host[1].pingApp[14] "ping out-of-order rate (%)" 0
scalar MeshLAN.host[1].pingApp[14] pingRxSeq:count 294
attr interpolationmode none
attr title "ping rx seq, count"
scalar MeshLAN.host[1].pingApp[14] pingTxSeq:count 294
attr interpolationmode none
attr title "ping tx seq, count"
scalar MeshLAN.host[1].pingApp[14] numOutOfOrderArrivals:last nan
attr interpolationmode none
attr title "ping out-of-order arrivals, last"
scalar MeshLAN.host[1].pingApp[14] numLost:last nan
attr interpolationmode none
attr title "pings lost, last"
scalar MeshLAN.host[1].pingApp[14] rtt:mean 0.0026170180153643
attr interpolationmode none
attr title "ping round-trip time, mean"
attr unit s
scalar MeshLAN.host[1].pingApp[15] "Pings sent" 381
scalar MeshLAN.host[1].pingApp[15] "ping loss rate (%)" 0
scalar MeshLAN.host[1].pingApp[15] "ping out-of-order rate (%)" 0
scalar MeshLAN.host[1].pingApp[15] pingRxSeq:count 293
attr interpolationmode none
attr title "ping rx seq, count"
scalar MeshLAN.host[1].pingApp[15] pingTxSeq:count 293
attr interpolationmode none
attr title "ping tx seq, count"
scalar MeshLAN.host[1].pingApp[15] numOutOfOrderArrivals:last nan
attr interpolationmode none
attr title "ping out-of-order arrivals, last"
scalar MeshLAN.host[1].pingApp[15] numLost:last nan
attr interpolationmode none
attr title "pings lost, last"
scalar MeshLAN.host[1].pingApp[15] rtt:mean 0.00080214495892387
attr interpolationmode none
attr title "ping round-trip time, mean"
attr unit s
scalar MeshLAN.host[1].pingApp[16] "Pings sent" 392
scalar MeshLAN.host[1].pingApp[16] "ping loss rate (%)" 0
scalar MeshLAN.host[1].pingApp[16] "ping out-of-order rate (%)" 0.25510204081633
scalar MeshLAN.host[1].pingApp[16] pingRxSeq:count 300
attr interpolationmode none
attr title "ping rx seq, count"
scalar MeshLAN.host[1].pingApp[16] pingTxSeq:count 300
attr interpolationmode none
attr title "ping tx seq, count"
scalar MeshLAN.host[1].pingApp[16] numOutOfOrderArrivals:last 1
attr interpolationmode none
attr title "ping out-of-order arrivals, last"
scalar MeshLAN.host[1].pingApp[16] numLost:last 0
attr interpolationmode none
attr title "pings lost, last"
scalar MeshLAN.host[1].pingApp[16] rtt:mean 0.0021034766988074
attr interpolationmode none
attr title "ping round-trip time, mean"
attr unit s
scalar MeshLAN.host[1].pingApp[17] "Pings sent" 384
scalar MeshLAN.host[1].pingApp[17] "ping loss rate (%)" 0
scalar MeshLAN.host[1].pingApp[17] "ping out-of-order rate (%)" 0
scalar MeshLAN.host[1].pingApp[17] pingRxSeq:count 285
attr interpolationmode none
attr title "ping rx seq, count"
scalar MeshLAN.host[1].pingApp[17] pingTxSeq:count 285
attr interpolationmode none
attr title "ping tx seq, count"
scalar MeshLAN.host[1].pingApp[17] numOutOfOrderArrivals:last nan
attr interpolationmode none
attr title "ping out-of-order arrivals, last"
scalar MeshLAN.host[1].pingApp[17] numLost:last nan
attr interpolationmode none
attr title "pings lost, last"
scalar MeshLAN.host[1].pingApp[17] rtt:mean 0.0014714760607385
attr interpolationmode none
attr title "ping round-trip time, mean"
attr unit s
scalar MeshLAN.host[1].pingApp[18] "Pings sent" 388
scalar MeshLAN.host[1].pingApp[18] "ping loss rate (%)" 0
scalar MeshLAN.host[1].pingApp[18] "ping out-of-order rate (%)" 0
scalar MeshLAN.host[1].pingApp[18] pingRxSeq:count 291
attr interpolationmode none
attr title "ping rx seq, count"
scalar MeshLAN.host[1].pingApp[18] pingTxSeq:count 291
attr interpolationmode none
attr title "ping tx seq, count"
scalar MeshLAN.host[1].pingApp[18] numOutOfOrderArrivals:last nan
attr interpolationmode none
attr title "ping out-of-order arrivals, last"
scalar MeshLAN.host[1].pingApp[18] numLost:last nan
attr interpolationmode none
attr title "pings lost, last"
scalar MeshLAN.host[1].pingApp[18] rtt:mean 0.0013659874775517
attr interpolationmode none
attr title "ping round-trip time, mean"
attr unit s
scalar MeshLAN.host[1].pingApp[19] "Pings sent" 381
scalar MeshLAN.host[1].pingApp[19] "ping loss rate (%)" 0
scalar MeshLAN.host[1].pingApp[19] "ping out-of-order rate (%)" 0
scalar MeshLAN.host[1].pingApp[19] pingRxSeq:count 292
attr interpolationmode none
attr title "ping rx seq, count"
scalar MeshLAN.host[1].pingApp[19] pingTxSeq:count 292
attr interpolationmode none
attr title "ping tx seq, count"
scalar MeshLAN.host[1].pingApp[19] numOutOfOrderArrivals:last nan
attr interpolationmode none
attr title "ping out-of-order arrivals, last"
scalar MeshLAN.host[1].pingApp[19] numLost:last nan
attr interpolationmode none
attr title "pings lost, last"
scalar MeshLAN.host[1].pingApp[19] rtt:mean 0.0022771214477931
attr interpolationmode none
attr title "ping round-trip time, mean"
attr unit s
scalar MeshLAN.host[1].pingApp[20] "Pings sent" 390
scalar MeshLAN.host[1].pingApp[20] "ping loss rate (%)" 0
scalar MeshLAN.host[1].pingApp[20] "ping out-of-order rate (%)" 0
scalar MeshLAN.host[1].pingApp[20] pingRxSeq:count 292
attr interpolationmode none
attr title "ping rx seq, count"
scalar MeshLAN.host[1].pingApp[20] pingTxSeq:count 292
attr interpolationmode none
attr title "ping tx seq, count"
scalar MeshLAN.host[1].pingApp[20] numOutOfOrderArrivals:last nan
attr interpolationmode none
attr title "ping out-of-order arrivals, last"
scalar MeshLAN.host[1].pingApp[20] numLost:last nan
attr interpolationmode none
attr title "pings lost, last"
scalar MeshLAN.host[1].pingApp[20] rtt:mean 0.001975837362535
attr interpolationmode none
attr title "ping round-trip time, mean"
attr unit s
scalar MeshLAN.host[1].pingApp[21] "Pings sent" 374
scalar MeshLAN.host[1].pingApp[21] "ping loss rate (%)" 0
scalar MeshLAN.host[1].pingApp[21] "ping out-of-order rate (%)" 0
scalar MeshLAN.host[1].pingApp[21] pingRxSeq:count 276
attr interpolationmode none
attr title "ping rx seq, count"
scalar MeshLAN.host[1].pingApp[21] pingTxSeq:count 276
attr interpolationmode none
attr title "ping tx seq, count"
scalar MeshLAN.host[1].pingApp[21] numOutOfOrderArrivals:last nan
attr interpolationmode none
attr title "ping out-of-order arrivals, last"
scalar MeshLAN.host[1].pingApp[21] numLost:last nan
attr interpolationmode none
attr title "pings lost, last"
scalar MeshLAN.host[1].pingApp[21] rtt:mean 0.0013323393045604
attr interpolationmode none
attr title "ping round-trip time, mean"
attr unit s
scalar MeshLAN.host[1].pingApp[22] "Pings sent" 394
scalar MeshLAN.host[1].pingApp[22] "ping loss rate (%)" 0
scalar MeshLAN.host[1].pingApp[22] "ping out-of-order rate (%)" 0
scalar MeshLAN.host[1].pingApp[22] pingRxSeq:count 294
attr interpolationmode none
attr title "ping rx seq, count"
scalar MeshLAN.host[1].pingApp[22] pingTxSeq:count 294
attr interpolationmode none
attr title "ping tx seq, count"
scalar MeshLAN.host[1].pingApp[22] numOutOfOrderArrivals:last nan
attr interpolationmode none
attr title "ping out-of-order arrivals, last"
scalar MeshLAN.host[1].pingApp[22] numLost:last nan
attr interpolationmode none
attr title "pings lost, last"
scalar MeshLAN.host[1].pingApp[22] rtt:mean 0.0015872467026448
attr interpolationmode none
attr title "ping round-trip time, mean"
attr unit s
scalar MeshLAN.host[1].pingApp[23] "Pings sent" 376
scalar MeshLAN.host[1].pingApp[23] "ping loss rate (%)" 0
scalar MeshLAN.host[1].pingApp[23] "ping out-of-order rate (%)" 0
scalar MeshLAN.host[1].pingApp[23] pingRxSeq:count 280
attr interpolationmode none
attr title "ping rx seq, count"
scalar MeshLAN.host[1].pingApp[23] pingTxSeq:count 280
attr interpolationmode none
attr title "ping tx seq, count"
scalar MeshLAN.host[1].pingApp[23] numOutOfOrderArrivals:last nan
attr interpolationmode none
attr title "ping out-of-order arrivals, last"
scalar MeshLAN.host[1].pingApp[23] numLost:last nan
attr interpolationmode none
attr title "pings lost, last"
scalar MeshLAN.host[1].pingApp[23] rtt:mean 0.00210574881415
attr interpolationmode none
attr title "ping round-trip time, mean"
attr unit s
scalar MeshLAN.host[1].pingApp[24] "Pings sent" 374
scalar MeshLAN.host[1].pingApp[24] "ping loss rate (%)" 0
scalar MeshLAN.host[1].pingApp[24] "ping out-of-order rate (%)" 0
scalar MeshLAN.host[1].pingApp[24] pingRxSeq:count 280
attr interpolationmode none
attr title "ping rx seq, count"
scalar MeshLAN.host[1].pingApp[24] pingTxSeq:count 280
attr interpolationmode none
attr title "ping tx seq, count"
scalar MeshLAN.host[1].pingApp[24] numOutOfOrderArrivals:last nan
attr interpolationmode none
attr title "ping out-of-order arrivals, last"
scalar MeshLAN.host[1].pingApp[24] numLost:last nan
attr interpolationmode none
attr title "pings lost, last"
scalar MeshLAN.host[1].pingApp[24] rtt:mean 0.0019820408808582
attr interpolationmode none
attr title "ping round-trip time, mean"
attr unit s
scalar MeshLAN.host[1].pingApp[25] "Pings sent" 383
scalar MeshLAN.host[1].pingApp[25] "ping loss rate (%)" 0
scalar MeshLAN.host[1].pingApp[25] "ping out-of-order rate (%)" 0.26109660574413
scalar MeshLAN.host[1].pingApp[25] pingRxSeq:count 293
attr interpolationmode none
attr title "ping rx seq, count"
scalar MeshLAN.host[1].pingApp[25] pingTxSeq:count 293
attr interpolationmode none
attr title "ping tx seq, count"
scalar MeshLAN.host[1].pingApp[25] numOutOfOrderArrivals:last 1
attr interpolationmode none
attr title "ping out-of-order arrivals, last"
scalar MeshLAN.host[1].pingApp[25] numLost:last 0
attr interpolationmode none
attr title "pings lost, last"
scalar MeshLAN.host[1].pingApp[25] rtt:mean 0.00085597395708621
attr interpolationmode none
attr title "ping round-trip time, mean"
attr unit s
scalar MeshLAN.host[1].pingApp[26] "Pings sent" 393
scalar MeshLAN.host[1].pingApp[26] "ping loss rate (%)" 0
scalar MeshLAN.host[1].pingApp[26] "ping out-of-order rate (%)" 0
scalar MeshLAN.host[1].pingApp[26] pingRxSeq:count 298
attr interpolationmode none
attr title "ping rx seq, count"
scalar MeshLAN.host[1].pingApp[26] pingTxSeq:count 298
attr interpolationmode none
attr title "ping tx seq, count"
scalar MeshLAN.host[1].pingApp[26] numOutOfOrderArrivals:last nan
attr interpolationmode none
attr title "ping out-of-order arrivals, last"
scalar MeshLAN.host[1].pingApp[26] numLost:last nan
attr interpolationmode none
attr title "pings lost, last"
scalar MeshLAN.host[1].pingApp[26] rtt:mean 0.0014840923302746
attr interpolationmode none
attr title "ping round-trip time, mean"
attr unit s
scalar MeshLAN.host[1].pingApp[27] "Pings sent" 388
scalar MeshLAN.host[1].pingApp[27] "ping loss rate (%)" 0
scalar MeshLAN.host[1].pingApp[27] "ping out-of-order rate (%)" 0.25773195876289
scalar MeshLAN.host[1].pingApp[27] pingRxSeq:count 294
attr interpolationmode none
attr title "ping rx seq, count"
scalar MeshLAN.host[1].pingApp[27] pingTxSeq:count 294
attr interpolationmode none
attr title "ping tx seq, count"
scalar MeshLAN.host[1].pingApp[27] numOutOfOrderArrivals:last 1
attr interpolationmode none
attr title "ping out-of-order arrivals, last"
scalar MeshLAN.host[1].pingApp[27] numLost:last 0
attr interpolationmode none
attr title "pings lost, last"
scalar MeshLAN.host[1].pingApp[27] rtt:mean 0.0025877505698282
attr interpolationmode none
attr title "ping round-trip time, mean"
attr unit s
scalar MeshLAN.host[2].networkLayer.arp sentReply:count 0
attr title "ARP replies sent, count"
scalar MeshLAN.host[2].networkLayer.arp sentReq:count 0
attr title "ARP request sent, count"
scalar MeshLAN.host[2].networkLayer.arp failedARPResolution:count 0
attr title "ARP failed resolutions, count"
scalar MeshLAN.host[2].networkLayer.arp completedARPResolution:count 0
attr title "ARP completed resolutions, count"
scalar MeshLAN.host[2].networkLayer.arp initiatedARPResolution:count 0
attr title "ARP initiated resolutions, count"
scalar MeshLAN.host[2].lo0.lo droppedPkBitError:count 0
attr interpolationmode none
attr source dropPkBitError
attr title "packets dropped/bit error, count"
scalar MeshLAN.host[2].lo0.lo droppedPkBitError:sum(packetBytes) 0
attr interpolationmode none
attr source dropPkBitError
attr title "packets dropped/bit error, sum(packetBytes)"
scalar MeshLAN.host[2].lo0.lo rcvdPkFromHL:count 148
attr interpolationmode none
attr source packetReceivedFromUpper
attr title "packets received from higher layer, count"
scalar MeshLAN.host[2].lo0.lo rcvdPkFromHL:sum(packetBytes) 74542
attr interpolationmode none
attr source packetReceivedFromUpper
attr title "packets received from higher layer, sum(packetBytes)"
scalar MeshLAN.host[2].lo0.lo passedUpPk:count 148
attr interpolationmode none
attr source packetSentToUpper
attr title "packets passed to higher layer, count"
scalar MeshLAN.host[2].lo0.lo passedUpPk:sum(packetBytes) 74542
attr interpolationmode none
attr source packetSentToUpper
attr title "packets passed to higher layer, sum(packetBytes)"
scalar MeshLAN.host[2].eth[0].queue.pauseQueue queueLength:max nan
attr interpolationmode sample-hold
attr title "queue length, max"
scalar MeshLAN.host[2].eth[0].queue.pauseQueue queueLength:timeavg nan
attr interpolationmode sample-hold
attr title "queue length, timeavg"
statistic MeshLAN.host[2].eth[0].queue.pauseQueue queueingTime:histogram
field count 0
field mean nan
field stddev nan
field min nan
field max nan
field sum 0
field sqrsum 0
attr interpolationmode none
attr title "queueing time, histogram"
bin	-inf	0
bin	-0.5	0
bin	-0.46666666666667	0
bin	-0.43333333333333	0
bin	-0.4	0
bin	-0.36666666666667	0
bin	-0.33333333333333	0
bin	-0.3	0
bin	-0.26666666666667	0
bin	-0.23333333333333	0
bin	-0.2	0
bin	-0.16666666666667	0
bin	-0.13333333333333	0
bin	-0.1	0
bin	-0.066666666666667	0
bin	-0.033333333333333	0
bin	0	0
bin	0.033333333333333	0
bin	0.066666666666667	0
bin	0.1	0
bin	0.13333333333333	0
bin	0.16666666666667	0
bin	0.2	0
bin	0.23333333333333	0
bin	0.26666666666667	0
bin	0.3	0
bin	0.33333333333333	0
bin	0.36666666666667	0
bin	0.4	0
bin	0.43333333333333	0
bin	0.46666666666667	0
bin	0.5	0
scalar MeshLAN.host[2].eth[0].queue.pauseQueue dropPk:count 0
attr interpolationmode none
attr source dropPkByQueue
attr title "dropped packets, count"
scalar MeshLAN.host[2].eth[0].queue.pauseQueue dropPk:sum(packetBytes) 0
attr interpolationmode none
attr source dropPkByQueue
attr title "dropped packets, sum(packetBytes)"
scalar MeshLAN.host[2].eth[0].queue.pauseQueue rcvdPk:count 0
attr interpolationmode none
attr title "received packets, count"
scalar MeshLAN.host[2].eth[0].queue.pauseQueue rcvdPk:sum(packetBytes) 0
attr interpolationmode none
attr title "received packets, sum(packetBytes)"
scalar MeshLAN.host[2].eth[0].queue.dataQueue queueLength:max 5
attr interpolationmode sample-hold
attr title "queue length, max"
scalar MeshLAN.host[2].eth[0].queue.dataQueue queueLength:timeavg 0.052260076815514
attr interpolationmode sample-hold
attr title "queue length, timeavg"
statistic MeshLAN.host[2].eth[0].queue.dataQueue queueingTime:histogram
field count 8807
field mean 8.9008243620416e-005
field stddev 0.00020519821133532
field min 0
field max 0.002146764768
field sum 0.783895601565
field sqrsum 0.00044056130074256
attr interpolationmode none
attr title "queueing time, histogram"
bin	-inf	0
bin	-0.000696385732	0
bin	-0.00060353430106667	0
bin	-0.00051068287013333	0
bin	-0.0004178314392	0
bin	-0.00032498000826667	0
bin	-0.00023212857733333	0
bin	-0.0001392771464	0
bin	-4.6425715466667e-005	6739
bin	4.6425715466667e-005	364
bin	0.0001392771464	346
bin	0.00023212857733333	338
bin	0.00032498000826667	299
bin	0.0004178314392	240
bin	0.00051068287013333	129
bin	0.00060353430106667	123
bin	0.000696385732	74
bin	0.00078923716293333	52
bin	0.00088208859386667	35
bin	0.0009749400248	20
bin	0.0010677914557333	16
bin	0.0011606428866667	12
bin	0.0012534943176	2
bin	0.0013463457485333	6
bin	0.0014391971794667	5
bin	0.0015320486104	1
bin	0.0016249000413333	2
bin	0.0017177514722667	0
bin	0.0018106029032	2
bin	0.0019034543341333	0
bin	0.0019963057650667	1
bin	0.002089157196	1
scalar MeshLAN.host[2].eth[0].queue.dataQueue dropPk:count 0
attr interpolationmode none
attr source dropPkByQueue
attr title "dropped packets, count"
scalar MeshLAN.host[2].eth[0].queue.dataQueue dropPk:sum(packetBytes) 0
attr interpolationmode none
attr source dropPkByQueue
attr title "dropped packets, sum(packetBytes)"
scalar MeshLAN.host[2].eth[0].queue.dataQueue rcvdPk:count 8807
attr interpolationmode none
attr title "received packets, count"
scalar MeshLAN.host[2].eth[0].queue.dataQueue rcvdPk:sum(packetBytes) 4708042
attr interpolationmode none
attr title "received packets, sum(packetBytes)"
scalar MeshLAN.host[2].eth[0].mac "simulated time" 20
scalar MeshLAN.host[2].eth[0].mac full-duplex 1
scalar MeshLAN.host[2].eth[0].mac "frames/sec sent" 581.95
scalar MeshLAN.host[2].eth[0].mac "frames/sec rcvd" 581.85
scalar MeshLAN.host[2].eth[0].mac "bits/sec sent" 2487521.2
scalar MeshLAN.host[2].eth[0].mac "bits/sec rcvd" 2487225.6
scalar MeshLAN.host[2].eth[0].mac "rx channel idle (%)" 74.75536
scalar MeshLAN.host[2].eth[0].mac "rx channel utilization (%)" 25.24464
scalar MeshLAN.host[2].eth[0].mac rxPkFromHL:count 8807
attr interpolationmode none
attr source rxPkFromHL
attr title "packet bytes from higher layer, count"
scalar MeshLAN.host[2].eth[0].mac rxPkFromHL:sum(packetBytes) 4708042
attr interpolationmode none
attr source rxPkFromHL
attr title "packet bytes from higher layer, sum(packetBytes)"
scalar MeshLAN.host[2].eth[0].mac rxPausePkUnits:count 0
attr interpolationmode none
attr title "pause units received, count"
scalar MeshLAN.host[2].eth[0].mac rxPausePkUnits:sum 0
attr interpolationmode none
attr title "pause units received, sum"
scalar MeshLAN.host[2].eth[0].mac txPausePkUnits:count 0
attr interpolationmode none
attr title "pause units sent, count"
scalar MeshLAN.host[2].eth[0].mac txPausePkUnits:sum 0
attr interpolationmode none
attr title "pause units sent, sum"
scalar MeshLAN.host[2].eth[0].mac txPk:count 8807
attr interpolationmode none
attr source txPk
attr title "packets transmitted, count"
scalar MeshLAN.host[2].eth[0].mac txPk:sum(packetBytes) 4708042
attr interpolationmode none
attr source txPk
attr title "packets transmitted, sum(packetBytes)"
scalar MeshLAN.host[2].eth[0].mac droppedPkNotForUs:count 0
attr interpolationmode none
attr source dropPkNotForUs
attr title "packets dropped/not for us, count"
scalar MeshLAN.host[2].eth[0].mac droppedPkNotForUs:sum(packetBytes) 0
attr interpolationmode none
attr source dropPkNotForUs
attr title "packets dropped/not for us, sum(packetBytes)"
scalar MeshLAN.host[2].eth[0].mac droppedPkBitError:count 0
attr interpolationmode none
attr source dropPkBitError
attr title "packets dropped/bit error, count"
scalar MeshLAN.host[2].eth[0].mac droppedPkBitError:sum(packetBytes) 0
attr interpolationmode none
attr source dropPkBitError
attr title "packets dropped/bit error, sum(packetBytes)"
scalar MeshLAN.host[2].eth[0].mac droppedPkIfaceDown:count 0
attr interpolationmode none
attr source dropPkIfaceDown
attr title "packets dropped/interface down, count"
scalar MeshLAN.host[2].eth[0].mac droppedPkIfaceDown:sum(packetBytes) 0
attr interpolationmode none
attr source dropPkIfaceDown
attr title "packets dropped/interface down, sum(packetBytes)"
scalar MeshLAN.host[2].eth[0].mac rxPkOk:count 8806
attr interpolationmode none
attr source rxPkOk
attr title "packets received OK, count"
scalar MeshLAN.host[2].eth[0].mac rxPkOk:sum(packetBytes) 4707832
attr interpolationmode none
attr source rxPkOk
attr title "packets received OK, sum(packetBytes)"
scalar MeshLAN.host[2].eth[0].mac passedUpPk:count 8806
attr interpolationmode none
attr source packetSentToUpper
attr title "packets passed to higher layer, count"
scalar MeshLAN.host[2].eth[0].mac passedUpPk:sum(packetBytes) 4707832
attr interpolationmode none
attr source packetSentToUpper
attr title "packets passed to higher layer, sum(packetBytes)"
scalar MeshLAN.host[2].eth[0].encap pauseSent:count 0
attr title "pause sent, count"
scalar MeshLAN.host[2].eth[0].encap pauseSent:sum 0
attr title "pause sent, sum"
scalar MeshLAN.host[2].eth[0].encap decapPk:count 8806
attr interpolationmode none
attr source decapPk
attr title "packets decapsulated, count"
scalar MeshLAN.host[2].eth[0].encap decapPk:sum(packetBytes) 4549234
attr interpolationmode none
attr source decapPk
attr title "packets decapsulated, sum(packetBytes)"
scalar MeshLAN.host[2].eth[0].encap encapPk:count 8807
attr interpolationmode none
attr source encapPk
attr title "packets encapsulated, count"
scalar MeshLAN.host[2].eth[0].encap encapPk:sum(packetBytes) 4549426
attr interpolationmode none
attr source encapPk
attr title "packets encapsulated, sum(packetBytes)"
scalar MeshLAN.host[2].pingApp[0] "Pings sent" 386
scalar MeshLAN.host[2].pingApp[0] "ping loss rate (%)" 0
scalar MeshLAN.host[2].pingApp[0] "ping out-of-order rate (%)" 0
scalar MeshLAN.host[2].pingApp[0] pingRxSeq:count 288
attr interpolationmode none
attr title "ping rx seq, count"
scalar MeshLAN.host[2].pingApp[0] pingTxSeq:count 288
attr interpolationmode none
attr title "ping tx seq, count"
scalar MeshLAN.host[2].pingApp[0] numOutOfOrderArrivals:last nan
attr interpolationmode none
attr title "ping out-of-order arrivals, last"
scalar MeshLAN.host[2].pingApp[0] numLost:last nan
attr interpolationmode none
attr title "pings lost, last"
scalar MeshLAN.host[2].pingApp[0] rtt:mean 0.0020350511785775
attr interpolationmode none
attr title "ping round-trip time, mean"
attr unit s
scalar MeshLAN.host[2].pingApp[1] "Pings sent" 374
scalar MeshLAN.host[2].pingApp[1] "ping loss rate (%)" 0
scalar MeshLAN.host[2].pingApp[1] "ping out-of-order rate (%)" 0.26737967914439
scalar MeshLAN.host[2].pingApp[1] pingRxSeq:count 289
attr interpolationmode none
attr title "ping rx seq, count"
scalar MeshLAN.host[2].pingApp[1] pingTxSeq:count 289
attr interpolationmode none
attr title "ping tx seq, count"
scalar MeshLAN.host[2].pingApp[1] numOutOfOrderArrivals:last 1
attr interpolationmode none
attr title "ping out-of-order arrivals, last"
scalar MeshLAN.host[2].pingApp[1] numLost:last 0
attr interpolationmode none
attr title "pings lost, last"
scalar MeshLAN.host[2].pingApp[1] rtt:mean 0.0022871498989444
attr interpolationmode none
attr title "ping round-trip time, mean"
attr unit s
scalar MeshLAN.host[2].pingApp[2] "Pings sent" 399
scalar MeshLAN.host[2].pingApp[2] "ping loss rate (%)" 0.25062656641604
scalar MeshLAN.host[2].pingApp[2] "ping out-of-order rate (%)" 0.25062656641604
scalar MeshLAN.host[2].pingApp[2] pingRxSeq:count 294
attr interpolationmode none
attr title "ping rx seq, count"
scalar MeshLAN.host[2].pingApp[2] pingTxSeq:count 295
attr interpolationmode none
attr title "ping tx seq, count"
scalar MeshLAN.host[2].pingApp[2] numOutOfOrderArrivals:last 1
attr interpolationmode none
attr title "ping out-of-order arrivals, last"
scalar MeshLAN.host[2].pingApp[2] numLost:last 0
attr interpolationmode none
attr title "pings lost, last"
scalar MeshLAN.host[2].pingApp[2] rtt:mean 0.00078731932195517
attr interpolationmode none
attr title "ping round-trip time, mean"
attr unit s
scalar MeshLAN.host[2].pingApp[3] "Pings sent" 382
scalar MeshLAN.host[2].pingApp[3] "ping loss rate (%)" 0
scalar MeshLAN.host[2].pingApp[3] "ping out-of-order rate (%)" 0
scalar MeshLAN.host[2].pingApp[3] pingRxSeq:count 293
attr interpolationmode none
attr title "ping rx seq, count"
scalar MeshLAN.host[2].pingApp[3] pingTxSeq:count 293
attr interpolationmode none
attr title "ping tx seq, count"
scalar MeshLAN.host[2].pingApp[3] numOutOfOrderArrivals:last nan
attr interpolationmode none
attr title "ping out-of-order arrivals, last"
scalar MeshLAN.host[2].pingApp[3] numLost:last nan
attr interpolationmode none
attr title "pings lost, last"
scalar MeshLAN.host[2].pingApp[3] rtt:mean 0.0018962469450655
attr interpolationmode none
attr title "ping round-trip time, mean"
attr unit s
scalar MeshLAN.host[2].pingApp[4] "Pings sent" 395
scalar MeshLAN.host[2].pingApp[4] "ping loss rate (%)" 0
scalar MeshLAN.host[2].pingApp[4] "ping out-of-order rate (%)" 0
scalar MeshLAN.host[2].pingApp[4] pingRxSeq:count 294
attr interpolationmode none
attr title "ping rx seq, count"
scalar MeshLAN.host[2].pingApp[4] pingTxSeq:count 294
attr interpolationmode none
attr title "ping tx seq, count"
scalar MeshLAN.host[2].pingApp[4] numOutOfOrderArrivals:last nan
attr interpolationmode none
attr title "ping out-of-order arrivals, last"
scalar MeshLAN.host[2].pingApp[4] numLost:last nan
attr interpolationmode none
attr title "pings lost, last"
scalar MeshLAN.host[2].pingApp[4] rtt:mean 0.0018009847191138
attr interpolationmode none
attr title "ping round-trip time, mean"
attr unit s
scalar MeshLAN.host[2].pingApp[5] "Pings sent" 379
scalar MeshLAN.host[2].pingApp[5] "ping loss rate (%)" 0
scalar MeshLAN.host[2].pingApp[5] "ping out-of-order rate (%)" 0.26385224274406
scalar MeshLAN.host[2].pingApp[5] pingRxSeq:count 290
attr interpolationmode none
attr title "ping rx seq, count"
scalar MeshLAN.host[2].pingApp[5] pingTxSeq:count 290
attr interpolationmode none
attr title "ping tx seq, count"
scalar MeshLAN.host[2].pingApp[5] numOutOfOrderArrivals:last 1
attr interpolationmode none
attr title "ping out-of-order arrivals, last"
scalar MeshLAN.host[2].pingApp[5] numLost:last 0
attr interpolationmode none
attr title "pings lost, last"
scalar MeshLAN.host[2].pingApp[5] rtt:mean 0.0016596969149586
attr interpolationmode none
attr title "ping round-trip time, mean"
attr unit s
scalar MeshLAN.host[2].pingApp[6] "Pings sent" 382
scalar MeshLAN.host[2].pingApp[6] "ping loss rate (%)" 0
scalar MeshLAN.host[2].pingApp[6] "ping out-of-order rate (%)" 0.26178010471204
scalar MeshLAN.host[2].pingApp[6] pingRxSeq:count 289
attr interpolationmode none
attr title "ping rx seq, count"
scalar MeshLAN.host[2].pingApp[6] pingTxSeq:count 289
attr interpolationmode none
attr title "ping tx seq, count"
scalar MeshLAN.host[2].pingApp[6] numOutOfOrderArrivals:last 1
attr interpolationmode none
attr title "ping out-of-order arrivals, last"
scalar MeshLAN.host[2].pingApp[6] numLost:last 0
attr interpolationmode none
attr title "pings lost, last"
scalar MeshLAN.host[2].pingApp[6] rtt:mean 0.0029916815693147
attr interpolationmode none
attr title "ping round-trip time, mean"
attr unit s
scalar MeshLAN.host[2].pingApp[7] "Pings sent" 391
scalar MeshLAN.host[2].pingApp[7] "ping loss rate (%)" 0
scalar MeshLAN.host[2].pingApp[7] "ping out-of-order rate (%)" 0
scalar MeshLAN.host[2].pingApp[7] pingRxSeq:count 292
attr interpolationmode none
attr title "ping rx seq, count"
scalar MeshLAN.host[2].pingApp[7] pingTxSeq:count 292
attr interpolationmode none
attr title "ping tx seq, count"
scalar MeshLAN.host[2].pingApp[7] numOutOfOrderArrivals:last nan
attr interpolationmode none
attr title "ping out-of-order arrivals, last"
scalar MeshLAN.host[2].pingApp[7] numLost:last nan
attr interpolationmode none
attr title "pings lost, last"
scalar MeshLAN.host[2].pingApp[7] rtt:mean 0.002009807381559
attr interpolationmode none
[...]
attr interpolationmode none
attr title "received packets, sum(packetBytes)"
scalar MeshLAN.router[9].eth[7].mac "simulated time" 20
scalar MeshLAN.router[9].eth[7].mac full-duplex 1
scalar MeshLAN.router[9].eth[7].mac "frames/sec sent" 112
scalar MeshLAN.router[9].eth[7].mac "frames/sec rcvd" 112
scalar MeshLAN.router[9].eth[7].mac "bits/sec sent" 478216.4
scalar MeshLAN.router[9].eth[7].mac "bits/sec rcvd" 478216.4
scalar MeshLAN.router[9].eth[7].mac "rx channel idle (%)" 95.146156
scalar MeshLAN.router[9].eth[7].mac "rx channel utilization (%)" 4.853844
scalar MeshLAN.router[9].eth[7].mac rxPkFromHL:count 1661
attr interpolationmode none
attr source rxPkFromHL
attr title "packet bytes from higher layer, count"
scalar MeshLAN.router[9].eth[7].mac rxPkFromHL:sum(packetBytes) 886569
attr interpolationmode none
attr source rxPkFromHL
attr title "packet bytes from higher layer, sum(packetBytes)"
scalar MeshLAN.router[9].eth[7].mac rxPausePkUnits:count 0
attr interpolationmode none
attr title "pause units received, count"
scalar MeshLAN.router[9].eth[7].mac rxPausePkUnits:sum 0
attr interpolationmode none
attr title "pause units received, sum"
scalar MeshLAN.router[9].eth[7].mac txPausePkUnits:count 0
attr interpolationmode none
attr title "pause units sent, count"
scalar MeshLAN.router[9].eth[7].mac txPausePkUnits:sum 0
attr interpolationmode none
attr title "pause units sent, sum"
scalar MeshLAN.router[9].eth[7].mac txPk:count 1661
attr interpolationmode none
attr source txPk
attr title "packets transmitted, count"
scalar MeshLAN.router[9].eth[7].mac txPk:sum(packetBytes) 886569
attr interpolationmode none
attr source txPk
attr title "packets transmitted, sum(packetBytes)"
scalar MeshLAN.router[9].eth[7].mac droppedPkNotForUs:count 0
attr interpolationmode none
attr source dropPkNotForUs
attr title "packets dropped/not for us, count"
scalar MeshLAN.router[9].eth[7].mac droppedPkNotForUs:sum(packetBytes) 0
attr interpolationmode none
attr source dropPkNotForUs
attr title "packets dropped/not for us, sum(packetBytes)"
scalar MeshLAN.router[9].eth[7].mac droppedPkBitError:count 0
attr interpolationmode none
attr source dropPkBitError
attr title "packets dropped/bit error, count"
scalar MeshLAN.router[9].eth[7].mac droppedPkBitError:sum(packetBytes) 0
attr interpolationmode none
attr source dropPkBitError
attr title "packets dropped/bit error, sum(packetBytes)"
scalar MeshLAN.router[9].eth[7].mac droppedPkIfaceDown:count 0
attr interpolationmode none
attr source dropPkIfaceDown
attr title "packets dropped/interface down, count"
scalar MeshLAN.router[9].eth[7].mac droppedPkIfaceDown:sum(packetBytes) 0
attr interpolationmode none
attr source dropPkIfaceDown
attr title "packets dropped/interface down, sum(packetBytes)"
scalar MeshLAN.router[9].eth[7].mac rxPkOk:count 1661
attr interpolationmode none
attr source rxPkOk
attr title "packets received OK, count"
scalar MeshLAN.router[9].eth[7].mac rxPkOk:sum(packetBytes) 886569
attr interpolationmode none
attr source rxPkOk
attr title "packets received OK, sum(packetBytes)"
scalar MeshLAN.router[9].eth[7].mac passedUpPk:count 1661
attr interpolationmode none
attr source packetSentToUpper
attr title "packets passed to higher layer, count"
scalar MeshLAN.router[9].eth[7].mac passedUpPk:sum(packetBytes) 886569
attr interpolationmode none
attr source packetSentToUpper
attr title "packets passed to higher layer, sum(packetBytes)"
scalar MeshLAN.router[9].eth[7].encap pauseSent:count 0
attr title "pause sent, count"
scalar MeshLAN.router[9].eth[7].encap pauseSent:sum 0
attr title "pause sent, sum"
scalar MeshLAN.router[9].eth[7].encap decapPk:count 1661
attr interpolationmode none
attr source decapPk
attr title "packets decapsulated, count"
scalar MeshLAN.router[9].eth[7].encap decapPk:sum(packetBytes) 856671
attr interpolationmode none
attr source decapPk
attr title "packets decapsulated, sum(packetBytes)"
scalar MeshLAN.router[9].eth[7].encap encapPk:count 1661
attr interpolationmode none
attr source encapPk
attr title "packets encapsulated, count"
scalar MeshLAN.router[9].eth[7].encap encapPk:sum(packetBytes) 856671
attr interpolationmode none
attr source encapPk
attr title "packets encapsulated, sum(packetBytes)"
scalar MeshLAN.router[9].eth[8].queue.pauseQueue queueLength:max nan
attr interpolationmode sample-hold
attr title "queue length, max"
scalar MeshLAN.router[9].eth[8].queue.pauseQueue queueLength:timeavg nan
attr interpolationmode sample-hold
attr title "queue length, timeavg"
statistic MeshLAN.router[9].eth[8].queue.pauseQueue queueingTime:histogram
field count 0
field mean nan
field stddev nan
field min nan
field max nan
field sum 0
field sqrsum 0
attr interpolationmode none
attr title "queueing time, histogram"
bin	-inf	0
bin	-0.5	0
bin	-0.46666666666667	0
bin	-0.43333333333333	0
bin	-0.4	0
bin	-0.36666666666667	0
bin	-0.33333333333333	0
bin	-0.3	0
bin	-0.26666666666667	0
bin	-0.23333333333333	0
bin	-0.2	0
bin	-0.16666666666667	0
bin	-0.13333333333333	0
bin	-0.1	0
bin	-0.066666666666667	0
bin	-0.033333333333333	0
bin	0	0
bin	0.033333333333333	0
bin	0.066666666666667	0
bin	0.1	0
bin	0.13333333333333	0
bin	0.16666666666667	0
bin	0.2	0
bin	0.23333333333333	0
bin	0.26666666666667	0
bin	0.3	0
bin	0.33333333333333	0
bin	0.36666666666667	0
bin	0.4	0
bin	0.43333333333333	0
bin	0.46666666666667	0
bin	0.5	0
scalar MeshLAN.router[9].eth[8].queue.pauseQueue dropPk:count 0
attr interpolationmode none
attr source dropPkByQueue
attr title "dropped packets, count"
scalar MeshLAN.router[9].eth[8].queue.pauseQueue dropPk:sum(packetBytes) 0
attr interpolationmode none
attr source dropPkByQueue
attr title "dropped packets, sum(packetBytes)"
scalar MeshLAN.router[9].eth[8].queue.pauseQueue rcvdPk:count 0
attr interpolationmode none
attr title "received packets, count"
scalar MeshLAN.router[9].eth[8].queue.pauseQueue rcvdPk:sum(packetBytes) 0
attr interpolationmode none
attr title "received packets, sum(packetBytes)"
scalar MeshLAN.router[9].eth[8].queue.dataQueue queueLength:max 2
attr interpolationmode sample-hold
attr title "queue length, max"
scalar MeshLAN.router[9].eth[8].queue.dataQueue queueLength:timeavg 0.0049200945999105
attr interpolationmode sample-hold
attr title "queue length, timeavg"
statistic MeshLAN.router[9].eth[8].queue.dataQueue queueingTime:histogram
field count 1771
field mean 4.1651709822699e-005
field stddev 0.00017177029966234
field min 0
field max 0.00132
field sum 0.073765178096
field sqrsum 5.5296359240656e-005
attr interpolationmode none
attr title "queueing time, histogram"
bin	-inf	0
bin	-0.0005754876305	0
bin	-0.00049875594643333	0
bin	-0.00042202426236667	0
bin	-0.0003452925783	0
bin	-0.00026856089423333	0
bin	-0.00019182921016667	0
bin	-0.0001150975261	0
bin	-3.8365842033333e-005	1638
bin	3.8365842033333e-005	13
bin	0.0001150975261	19
bin	0.00019182921016667	8
bin	0.00026856089423333	8
bin	0.0003452925783	9
bin	0.00042202426236667	6
bin	0.00049875594643333	4
bin	0.0005754876305	2
bin	0.00065221931456667	2
bin	0.00072895099863333	3
bin	0.0008056826827	54
bin	0.00088241436676667	0
bin	0.00095914605083333	0
bin	0.0010358777349	0
bin	0.0011126094189667	2
bin	0.0011893411030333	2
bin	0.0012660727871	1
bin	0.0013428044711667	0
bin	0.0014195361552333	0
bin	0.0014962678393	0
bin	0.0015729995233667	0
bin	0.0016497312074333	0
bin	0.0017264628915	0
scalar MeshLAN.router[9].eth[8].queue.dataQueue dropPk:count 0
attr interpolationmode none
attr source dropPkByQueue
attr title "dropped packets, count"
scalar MeshLAN.router[9].eth[8].queue.dataQueue dropPk:sum(packetBytes) 0
attr interpolationmode none
attr source dropPkByQueue
attr title "dropped packets, sum(packetBytes)"
scalar MeshLAN.router[9].eth[8].queue.dataQueue rcvdPk:count 1771
attr interpolationmode none
attr title "received packets, count"
scalar MeshLAN.router[9].eth[8].queue.dataQueue rcvdPk:sum(packetBytes) 988145
attr interpolationmode none
attr title "received packets, sum(packetBytes)"
scalar MeshLAN.router[9].eth[8].mac "simulated time" 20
scalar MeshLAN.router[9].eth[8].mac full-duplex 1
scalar MeshLAN.router[9].eth[8].mac "frames/sec sent" 115.2
scalar MeshLAN.router[9].eth[8].mac "frames/sec rcvd" 115.2
scalar MeshLAN.router[9].eth[8].mac "bits/sec sent" 511719.6
scalar MeshLAN.router[9].eth[8].mac "bits/sec rcvd" 511719.6
scalar MeshLAN.router[9].eth[8].mac "rx channel idle (%)" 94.809076
scalar MeshLAN.router[9].eth[8].mac "rx channel utilization (%)" 5.190924
scalar MeshLAN.router[9].eth[8].mac rxPkFromHL:count 1771
attr interpolationmode none
attr source rxPkFromHL
attr title "packet bytes from higher layer, count"
scalar MeshLAN.router[9].eth[8].mac rxPkFromHL:sum(packetBytes) 988145
attr interpolationmode none
attr source rxPkFromHL
attr title "packet bytes from higher layer, sum(packetBytes)"
scalar MeshLAN.router[9].eth[8].mac rxPausePkUnits:count 0
attr interpolationmode none
attr title "pause units received, count"
scalar MeshLAN.router[9].eth[8].mac rxPausePkUnits:sum 0
attr interpolationmode none
attr title "pause units received, sum"
scalar MeshLAN.router[9].eth[8].mac txPausePkUnits:count 0
attr interpolationmode none
attr title "pause units sent, count"
scalar MeshLAN.router[9].eth[8].mac txPausePkUnits:sum 0
attr interpolationmode none
attr title "pause units sent, sum"
scalar MeshLAN.router[9].eth[8].mac txPk:count 1771
attr interpolationmode none
attr source txPk
attr title "packets transmitted, count"
scalar MeshLAN.router[9].eth[8].mac txPk:sum(packetBytes) 988145
attr interpolationmode none
attr source txPk
attr title "packets transmitted, sum(packetBytes)"
scalar MeshLAN.router[9].eth[8].mac droppedPkNotForUs:count 0
attr interpolationmode none
attr source dropPkNotForUs
attr title "packets dropped/not for us, count"
scalar MeshLAN.router[9].eth[8].mac droppedPkNotForUs:sum(packetBytes) 0
attr interpolationmode none
attr source dropPkNotForUs
attr title "packets dropped/not for us, sum(packetBytes)"
scalar MeshLAN.router[9].eth[8].mac droppedPkBitError:count 0
attr interpolationmode none
attr source dropPkBitError
attr title "packets dropped/bit error, count"
scalar MeshLAN.router[9].eth[8].mac droppedPkBitError:sum(packetBytes) 0
attr interpolationmode none
attr source dropPkBitError
attr title "packets dropped/bit error, sum(packetBytes)"
scalar MeshLAN.router[9].eth[8].mac droppedPkIfaceDown:count 0
attr interpolationmode none
attr source dropPkIfaceDown
attr title "packets dropped/interface down, count"
scalar MeshLAN.router[9].eth[8].mac droppedPkIfaceDown:sum(packetBytes) 0
attr interpolationmode none
attr source dropPkIfaceDown
attr title "packets dropped/interface down, sum(packetBytes)"
scalar MeshLAN.router[9].eth[8].mac rxPkOk:count 1771
attr interpolationmode none
attr source rxPkOk
attr title "packets received OK, count"
scalar MeshLAN.router[9].eth[8].mac rxPkOk:sum(packetBytes) 988145
attr interpolationmode none
attr source rxPkOk
attr title "packets received OK, sum(packetBytes)"
scalar MeshLAN.router[9].eth[8].mac passedUpPk:count 1771
attr interpolationmode none
attr source packetSentToUpper
attr title "packets passed to higher layer, count"
scalar MeshLAN.router[9].eth[8].mac passedUpPk:sum(packetBytes) 988145
attr interpolationmode none
attr source packetSentToUpper
attr title "packets passed to higher layer, sum(packetBytes)"
scalar MeshLAN.router[9].eth[8].encap pauseSent:count 0
attr title "pause sent, count"
scalar MeshLAN.router[9].eth[8].encap pauseSent:sum 0
attr title "pause sent, sum"
scalar MeshLAN.router[9].eth[8].encap decapPk:count 1771
attr interpolationmode none
attr source decapPk
attr title "packets decapsulated, count"
scalar MeshLAN.router[9].eth[8].encap decapPk:sum(packetBytes) 956267
attr interpolationmode none
attr source decapPk
attr title "packets decapsulated, sum(packetBytes)"
scalar MeshLAN.router[9].eth[8].encap encapPk:count 1771
attr interpolationmode none
attr source encapPk
attr title "packets encapsulated, count"
scalar MeshLAN.router[9].eth[8].encap encapPk:sum(packetBytes) 956267
attr interpolationmode none
attr source encapPk
attr title "packets encapsulated, sum(packetBytes)"
scalar MeshLAN.router[9].eth[9].queue.pauseQueue queueLength:max nan
attr interpolationmode sample-hold
attr title "queue length, max"
scalar MeshLAN.router[9].eth[9].queue.pauseQueue queueLength:timeavg nan
attr interpolationmode sample-hold
attr title "queue length, timeavg"
statistic MeshLAN.router[9].eth[9].queue.pauseQueue queueingTime:histogram
field count 0
field mean nan
field stddev nan
field min nan
field max nan
field sum 0
field sqrsum 0
attr interpolationmode none
attr title "queueing time, histogram"
bin	-inf	0
bin	-0.5	0
bin	-0.46666666666667	0
bin	-0.43333333333333	0
bin	-0.4	0
bin	-0.36666666666667	0
bin	-0.33333333333333	0
bin	-0.3	0
bin	-0.26666666666667	0
bin	-0.23333333333333	0
bin	-0.2	0
bin	-0.16666666666667	0
bin	-0.13333333333333	0
bin	-0.1	0
bin	-0.066666666666667	0
bin	-0.033333333333333	0
bin	0	0
bin	0.033333333333333	0
bin	0.066666666666667	0
bin	0.1	0
bin	0.13333333333333	0
bin	0.16666666666667	0
bin	0.2	0
bin	0.23333333333333	0
bin	0.26666666666667	0
bin	0.3	0
bin	0.33333333333333	0
bin	0.36666666666667	0
bin	0.4	0
bin	0.43333333333333	0
bin	0.46666666666667	0
bin	0.5	0
scalar MeshLAN.router[9].eth[9].queue.pauseQueue dropPk:count 0
attr interpolationmode none
attr source dropPkByQueue
attr title "dropped packets, count"
scalar MeshLAN.router[9].eth[9].queue.pauseQueue dropPk:sum(packetBytes) 0
attr interpolationmode none
attr source dropPkByQueue
attr title "dropped packets, sum(packetBytes)"
scalar MeshLAN.router[9].eth[9].queue.pauseQueue rcvdPk:count 0
attr interpolationmode none
attr title "received packets, count"
scalar MeshLAN.router[9].eth[9].queue.pauseQueue rcvdPk:sum(packetBytes) 0
attr interpolationmode none
attr title "received packets, sum(packetBytes)"
scalar MeshLAN.router[9].eth[9].queue.dataQueue queueLength:max 2
attr interpolationmode sample-hold
attr title "queue length, max"
scalar MeshLAN.router[9].eth[9].queue.dataQueue queueLength:timeavg 0.0030796130639774
attr interpolationmode sample-hold
attr title "queue length, timeavg"
statistic MeshLAN.router[9].eth[9].queue.dataQueue queueingTime:histogram
field count 1701
field mean 2.7120372141681e-005
field stddev 0.00013106045748985
field min 0
field max 0.001073581561
field sum 0.046131753013
field sqrsum 3.0451744288922e-005
attr interpolationmode none
attr title "queueing time, histogram"
bin	-inf	0
bin	-0.0004232	0
bin	-0.00036677333333333	0
bin	-0.00031034666666667	0
bin	-0.00025392	0
bin	-0.00019749333333333	0
bin	-0.00014106666666667	0
bin	-8.464e-005	0
bin	-2.8213333333333e-005	1603
bin	2.8213333333333e-005	10
bin	8.464e-005	7
bin	0.00014106666666667	12
bin	0.00019749333333333	3
bin	0.00025392	2
bin	0.00031034666666667	5
bin	0.00036677333333333	8
bin	0.0004232	4
bin	0.00047962666666667	8
bin	0.00053605333333333	5
bin	0.00059248	3
bin	0.00064890666666667	2
bin	0.00070533333333333	1
bin	0.00076176	0
bin	0.00081818666666667	25
bin	0.00087461333333333	1
bin	0.00093104	0
bin	0.00098746666666667	1
bin	0.0010438933333333	1
bin	0.00110032	0
bin	0.0011567466666667	0
bin	0.0012131733333333	0
bin	0.0012696	0
scalar MeshLAN.router[9].eth[9].queue.dataQueue dropPk:count 0
attr interpolationmode none
attr source dropPkByQueue
attr title "dropped packets, count"
scalar MeshLAN.router[9].eth[9].queue.dataQueue dropPk:sum(packetBytes) 0
attr interpolationmode none
attr source dropPkByQueue
attr title "dropped packets, sum(packetBytes)"
scalar MeshLAN.router[9].eth[9].queue.dataQueue rcvdPk:count 1701
attr interpolationmode none
attr title "received packets, count"
scalar MeshLAN.router[9].eth[9].queue.dataQueue rcvdPk:sum(packetBytes) 949879
attr interpolationmode none
attr title "received packets, sum(packetBytes)"
scalar MeshLAN.router[9].eth[9].mac "simulated time" 20
scalar MeshLAN.router[9].eth[9].mac full-duplex 1
scalar MeshLAN.router[9].eth[9].mac "frames/sec sent" 111.25
scalar MeshLAN.router[9].eth[9].mac "frames/sec rcvd" 111.25
scalar MeshLAN.router[9].eth[9].mac "bits/sec sent" 499200
scalar MeshLAN.router[9].eth[9].mac "bits/sec rcvd" 499200
scalar MeshLAN.router[9].eth[9].mac "rx channel idle (%)" 94.9368
scalar MeshLAN.router[9].eth[9].mac "rx channel utilization (%)" 5.0632
scalar MeshLAN.router[9].eth[9].mac rxPkFromHL:count 1701
attr interpolationmode none
attr source rxPkFromHL
attr title "packet bytes from higher layer, count"
scalar MeshLAN.router[9].eth[9].mac rxPkFromHL:sum(packetBytes) 949879
attr interpolationmode none
attr source rxPkFromHL
attr title "packet bytes from higher layer, sum(packetBytes)"
scalar MeshLAN.router[9].eth[9].mac rxPausePkUnits:count 0
attr interpolationmode none
attr title "pause units received, count"
scalar MeshLAN.router[9].eth[9].mac rxPausePkUnits:sum 0
attr interpolationmode none
attr title "pause units received, sum"
scalar MeshLAN.router[9].eth[9].mac txPausePkUnits:count 0
attr interpolationmode none
attr title "pause units sent, count"
scalar MeshLAN.router[9].eth[9].mac txPausePkUnits:sum 0
attr interpolationmode none
attr title "pause units sent, sum"
scalar MeshLAN.router[9].eth[9].mac txPk:count 1701
attr interpolationmode none
attr source txPk
attr title "packets transmitted, count"
scalar MeshLAN.router[9].eth[9].mac txPk:sum(packetBytes) 949879
attr interpolationmode none
attr source txPk
attr title "packets transmitted, sum(packetBytes)"
scalar MeshLAN.router[9].eth[9].mac droppedPkNotForUs:count 0
attr interpolationmode none
attr source dropPkNotForUs
attr title "packets dropped/not for us, count"
scalar MeshLAN.router[9].eth[9].mac droppedPkNotForUs:sum(packetBytes) 0
attr interpolationmode none
attr source dropPkNotForUs
attr title "packets dropped/not for us, sum(packetBytes)"
scalar MeshLAN.router[9].eth[9].mac droppedPkBitError:count 0
attr interpolationmode none
attr source dropPkBitError
attr title "packets dropped/bit error, count"
scalar MeshLAN.router[9].eth[9].mac droppedPkBitError:sum(packetBytes) 0
attr interpolationmode none
attr source dropPkBitError
attr title "packets dropped/bit error, sum(packetBytes)"
scalar MeshLAN.router[9].eth[9].mac droppedPkIfaceDown:count 0
attr interpolationmode none
attr source dropPkIfaceDown
attr title "packets dropped/interface down, count"
scalar MeshLAN.router[9].eth[9].mac droppedPkIfaceDown:sum(packetBytes) 0
attr interpolationmode none
attr source dropPkIfaceDown
attr title "packets dropped/interface down, sum(packetBytes)"
scalar MeshLAN.router[9].eth[9].mac rxPkOk:count 1701
attr interpolationmode none
attr source rxPkOk
attr title "packets received OK, count"
scalar MeshLAN.router[9].eth[9].mac rxPkOk:sum(packetBytes) 949879
attr interpolationmode none
attr source rxPkOk
attr title "packets received OK, sum(packetBytes)"
scalar MeshLAN.router[9].eth[9].mac passedUpPk:count 1701
attr interpolationmode none
attr source packetSentToUpper
attr title "packets passed to higher layer, count"
scalar MeshLAN.router[9].eth[9].mac passedUpPk:sum(packetBytes) 949879
attr interpolationmode none
attr source packetSentToUpper
attr title "packets passed to higher layer, sum(packetBytes)"
scalar MeshLAN.router[9].eth[9].encap pauseSent:count 0
attr title "pause sent, count"
scalar MeshLAN.router[9].eth[9].encap pauseSent:sum 0
attr title "pause sent, sum"
scalar MeshLAN.router[9].eth[9].encap decapPk:count 1701
attr interpolationmode none
attr source decapPk
attr title "packets decapsulated, count"
scalar MeshLAN.router[9].eth[9].encap decapPk:sum(packetBytes) 919261
attr interpolationmode none
attr source decapPk
attr title "packets decapsulated, sum(packetBytes)"
scalar MeshLAN.router[9].eth[9].encap encapPk:count 1701
attr interpolationmode none
attr source encapPk
attr title "packets encapsulated, count"
scalar MeshLAN.router[9].eth[9].encap encapPk:sum(packetBytes) 919261
attr interpolationmode none
attr source encapPk
attr title "packets encapsulated, sum(packetBytes)"

