version 2
run MeshLAN10-packetsize-2-20180110-21:45:57-2800
attr configname MeshLAN10-packetsize
attr datetime 20180110-21:45:57
attr experiment MeshLAN10-packetsize
attr inifile MeshLAN.ini
attr iterationvars $pa=180
attr iterationvarsf pa=180-
attr measurement $pa=180
attr network MeshLAN
attr processid 2800
attr repetition 0
attr replication #0
attr resultdir results
attr runnumber 2
attr seedset 2
itervar pa 180
param *.numHosts 10
param **.datarate 10Mbps
param **.host[*].pingApp[*].sendInterval "truncnormal(50ms, 25ms)"
param **.host[*].pingApp[*].packetSize "truncnormal(512B, 256B)"
param **.queueType "\"DropTailQueue\""
param **.frameCapacity 10
param **.mtu 1024B
param **.host[*].numPingApps 180
param **.host[*].pingApp[*].typename "\"PingApp\""
param **.host[*].pingApp[*].count 1
param **.host[*].pingApp[*].startTime "truncnormal(200ms, 100ms)"
param **.host[*].pingApp[*].destAddr "\"*\""

scalar MeshLAN.host[0].networkLayer.arp sentReply:count 0
attr title "ARP replies sent, count"
scalar MeshLAN.host[0].networkLayer.arp sentReq:count 0
attr title "ARP request sent, count"
scalar MeshLAN.host[0].networkLayer.arp failedARPResolution:count 0
attr title "ARP failed resolutions, count"
scalar MeshLAN.host[0].networkLayer.arp completedARPResolution:count 0
attr title "ARP completed resolutions, count"
scalar MeshLAN.host[0].networkLayer.arp initiatedARPResolution:count 0
attr title "ARP initiated resolutions, count"
scalar MeshLAN.host[0].lo0.lo droppedPkBitError:count 0
attr interpolationmode none
attr source dropPkBitError
attr title "packets dropped/bit error, count"
scalar MeshLAN.host[0].lo0.lo droppedPkBitError:sum(packetBytes) 0
attr interpolationmode none
attr source dropPkBitError
attr title "packets dropped/bit error, sum(packetBytes)"
scalar MeshLAN.host[0].lo0.lo rcvdPkFromHL:count 948
attr interpolationmode none
attr source packetReceivedFromUpper
attr title "packets received from higher layer, count"
scalar MeshLAN.host[0].lo0.lo rcvdPkFromHL:sum(packetBytes) 516520
attr interpolationmode none
attr source packetReceivedFromUpper
attr title "packets received from higher layer, sum(packetBytes)"
scalar MeshLAN.host[0].lo0.lo passedUpPk:count 948
attr interpolationmode none
attr source packetSentToUpper
attr title "packets passed to higher layer, count"
scalar MeshLAN.host[0].lo0.lo passedUpPk:sum(packetBytes) 516520
attr interpolationmode none
attr source packetSentToUpper
attr title "packets passed to higher layer, sum(packetBytes)"
scalar MeshLAN.host[0].eth[0].queue.pauseQueue queueLength:max nan
attr interpolationmode sample-hold
attr title "queue length, max"
scalar MeshLAN.host[0].eth[0].queue.pauseQueue queueLength:timeavg nan
attr interpolationmode sample-hold
attr title "queue length, timeavg"
statistic MeshLAN.host[0].eth[0].queue.pauseQueue queueingTime:histogram
field count 0
field mean nan
field stddev nan
field min nan
field max nan
field sum 0
field sqrsum 0
attr interpolationmode none
attr title "queueing time, histogram"
bin	-inf	0
bin	-0.5	0
bin	-0.46666666666667	0
bin	-0.43333333333333	0
bin	-0.4	0
bin	-0.36666666666667	0
bin	-0.33333333333333	0
bin	-0.3	0
bin	-0.26666666666667	0
bin	-0.23333333333333	0
bin	-0.2	0
bin	-0.16666666666667	0
bin	-0.13333333333333	0
bin	-0.1	0
bin	-0.066666666666667	0
bin	-0.033333333333333	0
bin	0	0
bin	0.033333333333333	0
bin	0.066666666666667	0
bin	0.1	0
bin	0.13333333333333	0
bin	0.16666666666667	0
bin	0.2	0
bin	0.23333333333333	0
bin	0.26666666666667	0
bin	0.3	0
bin	0.33333333333333	0
bin	0.36666666666667	0
bin	0.4	0
bin	0.43333333333333	0
bin	0.46666666666667	0
bin	0.5	0
scalar MeshLAN.host[0].eth[0].queue.pauseQueue dropPk:count 0
attr interpolationmode none
attr source dropPkByQueue
attr title "dropped packets, count"
scalar MeshLAN.host[0].eth[0].queue.pauseQueue dropPk:sum(packetBytes) 0
attr interpolationmode none
attr source dropPkByQueue
attr title "dropped packets, sum(packetBytes)"
scalar MeshLAN.host[0].eth[0].queue.pauseQueue rcvdPk:count 0
attr interpolationmode none
attr title "received packets, count"
scalar MeshLAN.host[0].eth[0].queue.pauseQueue rcvdPk:sum(packetBytes) 0
attr interpolationmode none
attr title "received packets, sum(packetBytes)"
scalar MeshLAN.host[0].eth[0].queue.dataQueue queueLength:max 10
attr interpolationmode sample-hold
attr title "queue length, max"
scalar MeshLAN.host[0].eth[0].queue.dataQueue queueLength:timeavg 9.0677894629422
attr interpolationmode sample-hold
attr title "queue length, timeavg"
statistic MeshLAN.host[0].eth[0].queue.dataQueue queueingTime:histogram
field count 32196
field mean 0.0042246857539065
field stddev 0.00072953538115035
field min 0.000123593833
field max 0.006583878258
field sum 136.01798253277
field sqrsum 0.59176811626163
attr interpolationmode none
attr title "queueing time, histogram"
bin	-inf	0
bin	3.32531875e-005	2
bin	0.0002898997125	2
bin	0.0005465462375	5
bin	0.0008031927625	11
bin	0.0010598392875	19
bin	0.0013164858125	32
bin	0.0015731323375	76
bin	0.0018297788625	115
bin	0.0020864253875	159
bin	0.0023430719125	269
bin	0.0025997184375	516
bin	0.0028563649625	956
bin	0.0031130114875	1554
bin	0.0033696580125	2360
bin	0.0036263045375	3434
bin	0.0038829510625	4282
bin	0.0041395975875	4812
bin	0.0043962441125	4562
bin	0.0046528906375	3626
bin	0.0049095371625	2632
bin	0.0051661836875	1514
bin	0.0054228302125	764
bin	0.0056794767375	334
bin	0.0059361232625	124
bin	0.0061927697875	33
bin	0.0064494163125	3
bin	0.0067060628375	0
bin	0.0069627093625	0
bin	0.0072193558875	0
bin	0.0074760024125	0
bin	0.0077326489375	0
scalar MeshLAN.host[0].eth[0].queue.dataQueue dropPk:count 23763
attr interpolationmode none
attr source dropPkByQueue
attr title "dropped packets, count"
scalar MeshLAN.host[0].eth[0].queue.dataQueue dropPk:sum(packetBytes) 12868336
attr interpolationmode none
attr source dropPkByQueue
attr title "dropped packets, sum(packetBytes)"
scalar MeshLAN.host[0].eth[0].queue.dataQueue rcvdPk:count 55958
attr interpolationmode none
attr title "received packets, count"
scalar MeshLAN.host[0].eth[0].queue.dataQueue rcvdPk:sum(packetBytes) 30973191
attr interpolationmode none
attr title "received packets, sum(packetBytes)"
scalar MeshLAN.host[0].eth[0].mac "simulated time" 20
scalar MeshLAN.host[0].eth[0].mac full-duplex 1
scalar MeshLAN.host[0].eth[0].mac "frames/sec sent" 2143.05
scalar MeshLAN.host[0].eth[0].mac "frames/sec rcvd" 2103.3
scalar MeshLAN.host[0].eth[0].mac "bits/sec sent" 9645808
scalar MeshLAN.host[0].eth[0].mac "bits/sec rcvd" 9354008
scalar MeshLAN.host[0].eth[0].mac "rx channel idle (%)" 5.113808
scalar MeshLAN.host[0].eth[0].mac "rx channel utilization (%)" 94.886192
scalar MeshLAN.host[0].eth[0].mac rxPkFromHL:count 32196
attr interpolationmode none
attr source rxPkFromHL
attr title "packet bytes from higher layer, count"
scalar MeshLAN.host[0].eth[0].mac rxPkFromHL:sum(packetBytes) 18106512
attr interpolationmode none
attr source rxPkFromHL
attr title "packet bytes from higher layer, sum(packetBytes)"
scalar MeshLAN.host[0].eth[0].mac rxPausePkUnits:count 0
attr interpolationmode none
attr title "pause units received, count"
scalar MeshLAN.host[0].eth[0].mac rxPausePkUnits:sum 0
attr interpolationmode none
attr title "pause units received, sum"
scalar MeshLAN.host[0].eth[0].mac txPausePkUnits:count 0
attr interpolationmode none
attr title "pause units sent, count"
scalar MeshLAN.host[0].eth[0].mac txPausePkUnits:sum 0
attr interpolationmode none
attr title "pause units sent, sum"
scalar MeshLAN.host[0].eth[0].mac txPk:count 32196
attr interpolationmode none
attr source txPk
attr title "packets transmitted, count"
scalar MeshLAN.host[0].eth[0].mac txPk:sum(packetBytes) 18106383
attr interpolationmode none
attr source txPk
attr title "packets transmitted, sum(packetBytes)"
scalar MeshLAN.host[0].eth[0].mac droppedPkNotForUs:count 0
attr interpolationmode none
attr source dropPkNotForUs
attr title "packets dropped/not for us, count"
scalar MeshLAN.host[0].eth[0].mac droppedPkNotForUs:sum(packetBytes) 0
attr interpolationmode none
attr source dropPkNotForUs
attr title "packets dropped/not for us, sum(packetBytes)"
scalar MeshLAN.host[0].eth[0].mac droppedPkBitError:count 0
attr interpolationmode none
attr source dropPkBitError
attr title "packets dropped/bit error, count"
scalar MeshLAN.host[0].eth[0].mac droppedPkBitError:sum(packetBytes) 0
attr interpolationmode none
attr source dropPkBitError
attr title "packets dropped/bit error, sum(packetBytes)"
scalar MeshLAN.host[0].eth[0].mac droppedPkIfaceDown:count 0
attr interpolationmode none
attr source dropPkIfaceDown
attr title "packets dropped/interface down, count"
scalar MeshLAN.host[0].eth[0].mac droppedPkIfaceDown:sum(packetBytes) 0
attr interpolationmode none
attr source dropPkIfaceDown
attr title "packets dropped/interface down, sum(packetBytes)"
scalar MeshLAN.host[0].eth[0].mac rxPkOk:count 31598
attr interpolationmode none
attr source rxPkOk
attr title "packets received OK, count"
scalar MeshLAN.host[0].eth[0].mac rxPkOk:sum(packetBytes) 17557577
attr interpolationmode none
attr source rxPkOk
attr title "packets received OK, sum(packetBytes)"
scalar MeshLAN.host[0].eth[0].mac passedUpPk:count 31598
attr interpolationmode none
attr source packetSentToUpper
attr title "packets passed to higher layer, count"
scalar MeshLAN.host[0].eth[0].mac passedUpPk:sum(packetBytes) 17557577
attr interpolationmode none
attr source packetSentToUpper
attr title "packets passed to higher layer, sum(packetBytes)"
scalar MeshLAN.host[0].eth[0].encap pauseSent:count 0
attr title "pause sent, count"
scalar MeshLAN.host[0].eth[0].encap pauseSent:sum 0
attr title "pause sent, sum"
scalar MeshLAN.host[0].eth[0].encap decapPk:count 31598
attr interpolationmode none
attr source decapPk
attr title "packets decapsulated, count"
scalar MeshLAN.host[0].eth[0].encap decapPk:sum(packetBytes) 16986034
attr interpolationmode none
attr source decapPk
attr title "packets decapsulated, sum(packetBytes)"
scalar MeshLAN.host[0].eth[0].encap encapPk:count 55958
attr interpolationmode none
attr source encapPk
attr title "packets encapsulated, count"
scalar MeshLAN.host[0].eth[0].encap encapPk:sum(packetBytes) 29955573
attr interpolationmode none
attr source encapPk
attr title "packets encapsulated, sum(packetBytes)"
scalar MeshLAN.host[0].pingApp[0] "Pings sent" 377
scalar MeshLAN.host[0].pingApp[0] "ping loss rate (%)" 40.583554376658
scalar MeshLAN.host[0].pingApp[0] "ping out-of-order rate (%)" 0
scalar MeshLAN.host[0].pingApp[0] pingRxSeq:count 171
attr interpolationmode none
attr title "ping rx seq, count"
scalar MeshLAN.host[0].pingApp[0] pingTxSeq:count 288
attr interpolationmode none
attr title "ping tx seq, count"
scalar MeshLAN.host[0].pingApp[0] numOutOfOrderArrivals:last nan
attr interpolationmode none
attr title "ping out-of-order arrivals, last"
scalar MeshLAN.host[0].pingApp[0] numLost:last 150
attr interpolationmode none
attr title "pings lost, last"
scalar MeshLAN.host[0].pingApp[0] rtt:mean 0.0082865689263018
attr interpolationmode none
attr title "ping round-trip time, mean"
attr unit s
scalar MeshLAN.host[0].pingApp[1] "Pings sent" 377
scalar MeshLAN.host[0].pingApp[1] "ping loss rate (%)" 40.053050397878
scalar MeshLAN.host[0].pingApp[1] "ping out-of-order rate (%)" 0
scalar MeshLAN.host[0].pingApp[1] pingRxSeq:count 176
attr interpolationmode none
attr title "ping rx seq, count"
scalar MeshLAN.host[0].pingApp[1] pingTxSeq:count 289
attr interpolationmode none
attr title "ping tx seq, count"
scalar MeshLAN.host[0].pingApp[1] numOutOfOrderArrivals:last nan
attr interpolationmode none
attr title "ping out-of-order arrivals, last"
scalar MeshLAN.host[0].pingApp[1] numLost:last 151
attr interpolationmode none
attr title "pings lost, last"
scalar MeshLAN.host[0].pingApp[1] rtt:mean 0.0083584749701802
attr interpolationmode none
attr title "ping round-trip time, mean"
attr unit s
scalar MeshLAN.host[0].pingApp[2] "Pings sent" 379
scalar MeshLAN.host[0].pingApp[2] "ping loss rate (%)" 44.591029023747
scalar MeshLAN.host[0].pingApp[2] "ping out-of-order rate (%)" 0
scalar MeshLAN.host[0].pingApp[2] pingRxSeq:count 157
attr interpolationmode none
attr title "ping rx seq, count"
scalar MeshLAN.host[0].pingApp[2] pingTxSeq:count 286
attr interpolationmode none
attr title "ping tx seq, count"
scalar MeshLAN.host[0].pingApp[2] numOutOfOrderArrivals:last nan
attr interpolationmode none
attr title "ping out-of-order arrivals, last"
scalar MeshLAN.host[0].pingApp[2] numLost:last 166
attr interpolationmode none
attr title "pings lost, last"
scalar MeshLAN.host[0].pingApp[2] rtt:mean 0.0074187299077548
attr interpolationmode none
attr title "ping round-trip time, mean"
attr unit s
scalar MeshLAN.host[0].pingApp[3] "Pings sent" 374
scalar MeshLAN.host[0].pingApp[3] "ping loss rate (%)" 38.502673796791
scalar MeshLAN.host[0].pingApp[3] "ping out-of-order rate (%)" 0
scalar MeshLAN.host[0].pingApp[3] pingRxSeq:count 178
attr interpolationmode none
attr title "ping rx seq, count"
scalar MeshLAN.host[0].pingApp[3] pingTxSeq:count 290
attr interpolationmode none
attr title "ping tx seq, count"
scalar MeshLAN.host[0].pingApp[3] numOutOfOrderArrivals:last nan
attr interpolationmode none
attr title "ping out-of-order arrivals, last"
scalar MeshLAN.host[0].pingApp[3] numLost:last 144
attr interpolationmode none
attr title "pings lost, last"
scalar MeshLAN.host[0].pingApp[3] rtt:mean 0.0076422491369551
attr interpolationmode none
attr title "ping round-trip time, mean"
attr unit s
scalar MeshLAN.host[0].pingApp[4] "Pings sent" 387
scalar MeshLAN.host[0].pingApp[4] "ping loss rate (%)" 47.02842377261
scalar MeshLAN.host[0].pingApp[4] "ping out-of-order rate (%)" 0.25839793281654
scalar MeshLAN.host[0].pingApp[4] pingRxSeq:count 153
attr interpolationmode none
attr title "ping rx seq, count"
scalar MeshLAN.host[0].pingApp[4] pingTxSeq:count 290
attr interpolationmode none
attr title "ping tx seq, count"
scalar MeshLAN.host[0].pingApp[4] numOutOfOrderArrivals:last 1
attr interpolationmode none
attr title "ping out-of-order arrivals, last"
scalar MeshLAN.host[0].pingApp[4] numLost:last 180
attr interpolationmode none
attr title "pings lost, last"
scalar MeshLAN.host[0].pingApp[4] rtt:mean 0.0072829342242215
attr interpolationmode none
attr title "ping round-trip time, mean"
attr unit s
scalar MeshLAN.host[0].pingApp[5] "Pings sent" 377
scalar MeshLAN.host[0].pingApp[5] "ping loss rate (%)" 46.684350132626
scalar MeshLAN.host[0].pingApp[5] "ping out-of-order rate (%)" 0
scalar MeshLAN.host[0].pingApp[5] pingRxSeq:count 154
attr interpolationmode none
attr title "ping rx seq, count"
scalar MeshLAN.host[0].pingApp[5] pingTxSeq:count 291
attr interpolationmode none
attr title "ping tx seq, count"
scalar MeshLAN.host[0].pingApp[5] numOutOfOrderArrivals:last nan
attr interpolationmode none
attr title "ping out-of-order arrivals, last"
scalar MeshLAN.host[0].pingApp[5] numLost:last 176
attr interpolationmode none
attr title "pings lost, last"
scalar MeshLAN.host[0].pingApp[5] rtt:mean 0.0081887634412434
attr interpolationmode none
attr title "ping round-trip time, mean"
attr unit s
scalar MeshLAN.host[0].pingApp[6] "Pings sent" 385
scalar MeshLAN.host[0].pingApp[6] "ping loss rate (%)" 44.935064935065
scalar MeshLAN.host[0].pingApp[6] "ping out-of-order rate (%)" 0
scalar MeshLAN.host[0].pingApp[6] pingRxSeq:count 158
attr interpolationmode none
attr title "ping rx seq, count"
scalar MeshLAN.host[0].pingApp[6] pingTxSeq:count 287
attr interpolationmode none
attr title "ping tx seq, count"
scalar MeshLAN.host[0].pingApp[6] numOutOfOrderArrivals:last nan
attr interpolationmode none
attr title "ping out-of-order arrivals, last"
scalar MeshLAN.host[0].pingApp[6] numLost:last 173
attr interpolationmode none
attr title "pings lost, last"
scalar MeshLAN.host[0].pingApp[6] rtt:mean 0.007708004634465
attr interpolationmode none
attr title "ping round-trip time, mean"
attr unit s
scalar MeshLAN.host[0].pingApp[7] "Pings sent" 390
scalar MeshLAN.host[0].pingApp[7] "ping loss rate (%)" 43.589743589744
scalar MeshLAN.host[0].pingApp[7] "ping out-of-order rate (%)" 0.25641025641026
scalar MeshLAN.host[0].pingApp[7] pingRxSeq:count 162
attr interpolationmode none
attr title "ping rx seq, count"
scalar MeshLAN.host[0].pingApp[7] pingTxSeq:count 296
attr interpolationmode none
attr title "ping tx seq, count"
scalar MeshLAN.host[0].pingApp[7] numOutOfOrderArrivals:last 1
attr interpolationmode none
attr title "ping out-of-order arrivals, last"
scalar MeshLAN.host[0].pingApp[7] numLost:last 169
attr interpolationmode none
attr title "pings lost, last"
scalar MeshLAN.host[0].pingApp[7] rtt:mean 0.0077399043127296
attr interpolationmode none
attr title "ping round-trip time, mean"
attr unit s
scalar MeshLAN.host[0].pingApp[8] "Pings sent" 394
scalar MeshLAN.host[0].pingApp[8] "ping loss rate (%)" 42.639593908629
scalar MeshLAN.host[0].pingApp[8] "ping out-of-order rate (%)" 0
scalar MeshLAN.host[0].pingApp[8] pingRxSeq:count 169
attr interpolationmode none
attr title "ping rx seq, count"
scalar MeshLAN.host[0].pingApp[8] pingTxSeq:count 294
attr interpolationmode none
attr title "ping tx seq, count"
scalar MeshLAN.host[0].pingApp[8] numOutOfOrderArrivals:last nan
attr interpolationmode none
attr title "ping out-of-order arrivals, last"
scalar MeshLAN.host[0].pingApp[8] numLost:last 165
attr interpolationmode none
attr title "pings lost, last"
scalar MeshLAN.host[0].pingApp[8] rtt:mean 0.0067441515355602
attr interpolationmode none
attr title "ping round-trip time, mean"
attr unit s
scalar MeshLAN.host[0].pingApp[9] "Pings sent" 384
scalar MeshLAN.host[0].pingApp[9] "ping loss rate (%)" 42.447916666667
scalar MeshLAN.host[0].pingApp[9] "ping out-of-order rate (%)" 0
scalar MeshLAN.host[0].pingApp[9] pingRxSeq:count 167
attr interpolationmode none
attr title "ping rx seq, count"
scalar MeshLAN.host[0].pingApp[9] pingTxSeq:count 285
attr interpolationmode none
attr title "ping tx seq, count"
scalar MeshLAN.host[0].pingApp[9] numOutOfOrderArrivals:last nan
attr interpolationmode none
attr title "ping out-of-order arrivals, last"
scalar MeshLAN.host[0].pingApp[9] numLost:last 161
attr interpolationmode none
attr title "pings lost, last"
scalar MeshLAN.host[0].pingApp[9] rtt:mean 0.0083073173248242
attr interpolationmode none
attr title "ping round-trip time, mean"
attr unit s
scalar MeshLAN.host[0].pingApp[10] "Pings sent" 385
scalar MeshLAN.host[0].pingApp[10] "ping loss rate (%)" 41.558441558442
scalar MeshLAN.host[0].pingApp[10] "ping out-of-order rate (%)" 0
scalar MeshLAN.host[0].pingApp[10] pingRxSeq:count 164
attr interpolationmode none
attr title "ping rx seq, count"
scalar MeshLAN.host[0].pingApp[10] pingTxSeq:count 293
attr interpolationmode none
attr title "ping tx seq, count"
scalar MeshLAN.host[0].pingApp[10] numOutOfOrderArrivals:last nan
attr interpolationmode none
attr title "ping out-of-order arrivals, last"
scalar MeshLAN.host[0].pingApp[10] numLost:last 155
attr interpolationmode none
attr title "pings lost, last"
scalar MeshLAN.host[0].pingApp[10] rtt:mean 0.0078634542223789
attr interpolationmode none
attr title "ping round-trip time, mean"
attr unit s
scalar MeshLAN.host[0].pingApp[11] "Pings sent" 382
scalar MeshLAN.host[0].pingApp[11] "ping loss rate (%)" 40.837696335079
scalar MeshLAN.host[0].pingApp[11] "ping out-of-order rate (%)" 0
scalar MeshLAN.host[0].pingApp[11] pingRxSeq:count 165
attr interpolationmode none
attr title "ping rx seq, count"
scalar MeshLAN.host[0].pingApp[11] pingTxSeq:count 285
attr interpolationmode none
attr title "ping tx seq, count"
scalar MeshLAN.host[0].pingApp[11] numOutOfOrderArrivals:last nan
attr interpolationmode none
attr title "ping out-of-order arrivals, last"
scalar MeshLAN.host[0].pingApp[11] numLost:last 156
attr interpolationmode none
attr title "pings lost, last"
scalar MeshLAN.host[0].pingApp[11] rtt:mean 0.0084193801587866
attr interpolationmode none
attr title "ping round-trip time, mean"
attr unit s
scalar MeshLAN.host[0].pingApp[12] "Pings sent" 413
scalar MeshLAN.host[0].pingApp[12] "ping loss rate (%)" 40.9200968523
scalar MeshLAN.host[0].pingApp[12] "ping out-of-order rate (%)" 0.24213075060533
scalar MeshLAN.host[0].pingApp[12] pingRxSeq:count 179
attr interpolationmode none
attr title "ping rx seq, count"
scalar MeshLAN.host[0].pingApp[12] pingTxSeq:count 315
attr interpolationmode none
attr title "ping tx seq, count"
scalar MeshLAN.host[0].pingApp[12] numOutOfOrderArrivals:last 1
attr interpolationmode none
attr title "ping out-of-order arrivals, last"
scalar MeshLAN.host[0].pingApp[12] numLost:last 165
attr interpolationmode none
attr title "pings lost, last"
scalar MeshLAN.host[0].pingApp[12] rtt:mean 0.0075644786773837
attr interpolationmode none
attr title "ping round-trip time, mean"
attr unit s
scalar MeshLAN.host[0].pingApp[13] "Pings sent" 370
scalar MeshLAN.host[0].pingApp[13] "ping loss rate (%)" 45.405405405405
scalar MeshLAN.host[0].pingApp[13] "ping out-of-order rate (%)" 0
scalar MeshLAN.host[0].pingApp[13] pingRxSeq:count 147
attr interpolationmode none
attr title "ping rx seq, count"
scalar MeshLAN.host[0].pingApp[13] pingTxSeq:count 279
attr interpolationmode none
attr title "ping tx seq, count"
scalar MeshLAN.host[0].pingApp[13] numOutOfOrderArrivals:last nan
attr interpolationmode none
attr title "ping out-of-order arrivals, last"
scalar MeshLAN.host[0].pingApp[13] numLost:last 167
attr interpolationmode none
attr title "pings lost, last"
scalar MeshLAN.host[0].pingApp[13] rtt:mean 0.0078561134335245
attr interpolationmode none
attr title "ping round-trip time, mean"
attr unit s
scalar MeshLAN.host[0].pingApp[14] "Pings sent" 389
scalar MeshLAN.host[0].pingApp[14] "ping loss rate (%)" 48.329048843188
scalar MeshLAN.host[0].pingApp[14] "ping out-of-order rate (%)" 0
scalar MeshLAN.host[0].pingApp[14] pingRxSeq:count 153
attr interpolationmode none
attr title "ping rx seq, count"
scalar MeshLAN.host[0].pingApp[14] pingTxSeq:count 295
attr interpolationmode none
attr title "ping tx seq, count"
scalar MeshLAN.host[0].pingApp[14] numOutOfOrderArrivals:last nan
attr interpolationmode none
attr title "ping out-of-order arrivals, last"
scalar MeshLAN.host[0].pingApp[14] numLost:last 188
attr interpolationmode none
attr title "pings lost, last"
scalar MeshLAN.host[0].pingApp[14] rtt:mean 0.0074702088547533
attr interpolationmode none
attr title "ping round-trip time, mean"
attr unit s
scalar MeshLAN.host[0].pingApp[15] "Pings sent" 394
scalar MeshLAN.host[0].pingApp[15] "ping loss rate (%)" 41.370558375635
scalar MeshLAN.host[0].pingApp[15] "ping out-of-order rate (%)" 0
scalar MeshLAN.host[0].pingApp[15] pingRxSeq:count 171
attr interpolationmode none
attr title "ping rx seq, count"
scalar MeshLAN.host[0].pingApp[15] pingTxSeq:count 295
attr interpolationmode none
attr title "ping tx seq, count"
scalar MeshLAN.host[0].pingApp[15] numOutOfOrderArrivals:last nan
attr interpolationmode none
attr title "ping out-of-order arrivals, last"
scalar MeshLAN.host[0].pingApp[15] numLost:last 163
attr interpolationmode none
attr title "pings lost, last"
scalar MeshLAN.host[0].pingApp[15] rtt:mean 0.0073886686174405
attr interpolationmode none
attr title "ping round-trip time, mean"
attr unit s
scalar MeshLAN.host[0].pingApp[16] "Pings sent" 386
scalar MeshLAN.host[0].pingApp[16] "ping loss rate (%)" 39.896373056995
scalar MeshLAN.host[0].pingApp[16] "ping out-of-order rate (%)" 0
scalar MeshLAN.host[0].pingApp[16] pingRxSeq:count 174
attr interpolationmode none
attr title "ping rx seq, count"
scalar MeshLAN.host[0].pingApp[16] pingTxSeq:count 291
attr interpolationmode none
attr title "ping tx seq, count"
scalar MeshLAN.host[0].pingApp[16] numOutOfOrderArrivals:last nan
attr interpolationmode none
attr title "ping out-of-order arrivals, last"
scalar MeshLAN.host[0].pingApp[16] numLost:last 154
attr interpolationmode none
attr title "pings lost, last"
scalar MeshLAN.host[0].pingApp[16] rtt:mean 0.0074115549292326
attr interpolationmode none
attr title "ping round-trip time, mean"
attr unit s
scalar MeshLAN.host[0].pingApp[17] "Pings sent" 395
scalar MeshLAN.host[0].pingApp[17] "ping loss rate (%)" 45.822784810127
scalar MeshLAN.host[0].pingApp[17] "ping out-of-order rate (%)" 0
scalar MeshLAN.host[0].pingApp[17] pingRxSeq:count 163
attr interpolationmode none
attr title "ping rx seq, count"
scalar MeshLAN.host[0].pingApp[17] pingTxSeq:count 300
attr interpolationmode none
attr title "ping tx seq, count"
scalar MeshLAN.host[0].pingApp[17] numOutOfOrderArrivals:last nan
attr interpolationmode none
attr title "ping out-of-order arrivals, last"
scalar MeshLAN.host[0].pingApp[17] numLost:last 181
attr interpolationmode none
attr title "pings lost, last"
scalar MeshLAN.host[0].pingApp[17] rtt:mean 0.0075609229275617
attr interpolationmode none
attr title "ping round-trip time, mean"
attr unit s
scalar MeshLAN.host[0].pingApp[18] "Pings sent" 398
scalar MeshLAN.host[0].pingApp[18] "ping loss rate (%)" 43.969849246231
scalar MeshLAN.host[0].pingApp[18] "ping out-of-order rate (%)" 0
scalar MeshLAN.host[0].pingApp[18] pingRxSeq:count 166
attr interpolationmode none
attr title "ping rx seq, count"
scalar MeshLAN.host[0].pingApp[18] pingTxSeq:count 305
attr interpolationmode none
attr title "ping tx seq, count"
scalar MeshLAN.host[0].pingApp[18] numOutOfOrderArrivals:last nan
attr interpolationmode none
attr title "ping out-of-order arrivals, last"
scalar MeshLAN.host[0].pingApp[18] numLost:last 174
attr interpolationmode none
attr title "pings lost, last"
scalar MeshLAN.host[0].pingApp[18] rtt:mean 0.0086778315822424
attr interpolationmode none
attr title "ping round-trip time, mean"
attr unit s
scalar MeshLAN.host[0].pingApp[19] "Pings sent" 394
scalar MeshLAN.host[0].pingApp[19] "ping loss rate (%)" 42.639593908629
scalar MeshLAN.host[0].pingApp[19] "ping out-of-order rate (%)" 0.25380710659898
scalar MeshLAN.host[0].pingApp[19] pingRxSeq:count 164
attr interpolationmode none
attr title "ping rx seq, count"
scalar MeshLAN.host[0].pingApp[19] pingTxSeq:count 296
attr interpolationmode none
attr title "ping tx seq, count"
scalar MeshLAN.host[0].pingApp[19] numOutOfOrderArrivals:last 1
attr interpolationmode none
attr title "ping out-of-order arrivals, last"
scalar MeshLAN.host[0].pingApp[19] numLost:last 168
attr interpolationmode none
attr title "pings lost, last"
scalar MeshLAN.host[0].pingApp[19] rtt:mean 0.0080026312394136
attr interpolationmode none
attr title "ping round-trip time, mean"
attr unit s
scalar MeshLAN.host[0].pingApp[20] "Pings sent" 366
scalar MeshLAN.host[0].pingApp[20] "ping loss rate (%)" 44.808743169399
scalar MeshLAN.host[0].pingApp[20] "ping out-of-order rate (%)" 0.27322404371585
scalar MeshLAN.host[0].pingApp[20] pingRxSeq:count 157
attr interpolationmode none
attr title "ping rx seq, count"
scalar MeshLAN.host[0].pingApp[20] pingTxSeq:count 284
attr interpolationmode none
attr title "ping tx seq, count"
scalar MeshLAN.host[0].pingApp[20] numOutOfOrderArrivals:last 1
attr interpolationmode none
attr title "ping out-of-order arrivals, last"
scalar MeshLAN.host[0].pingApp[20] numLost:last 164
attr interpolationmode none
attr title "pings lost, last"
scalar MeshLAN.host[0].pingApp[20] rtt:mean 0.0078515593333013
attr interpolationmode none
attr title "ping round-trip time, mean"
attr unit s
scalar MeshLAN.host[0].pingApp[21] "Pings sent" 376
scalar MeshLAN.host[0].pingApp[21] "ping loss rate (%)" 42.553191489362
scalar MeshLAN.host[0].pingApp[21] "ping out-of-order rate (%)" 0
scalar MeshLAN.host[0].pingApp[21] pingRxSeq:count 162
attr interpolationmode none
attr title "ping rx seq, count"
scalar MeshLAN.host[0].pingApp[21] pingTxSeq:count 286
attr interpolationmode none
attr title "ping tx seq, count"
scalar MeshLAN.host[0].pingApp[21] numOutOfOrderArrivals:last nan
attr interpolationmode none
attr title "ping out-of-order arrivals, last"
scalar MeshLAN.host[0].pingApp[21] numLost:last 160
attr interpolationmode none
attr title "pings lost, last"
scalar MeshLAN.host[0].pingApp[21] rtt:mean 0.0078099062036975
attr interpolationmode none
attr title "ping round-trip time, mean"
attr unit s
scalar MeshLAN.host[0].pingApp[22] "Pings sent" 387
scalar MeshLAN.host[0].pingApp[22] "ping loss rate (%)" 45.736434108527
scalar MeshLAN.host[0].pingApp[22] "ping out-of-order rate (%)" 0
scalar MeshLAN.host[0].pingApp[22] pingRxSeq:count 167
attr interpolationmode none
attr title "ping rx seq, count"
scalar MeshLAN.host[0].pingApp[22] pingTxSeq:count 294
attr interpolationmode none
attr title "ping tx seq, count"
scalar MeshLAN.host[0].pingApp[22] numOutOfOrderArrivals:last nan
attr interpolationmode none
attr title "ping out-of-order arrivals, last"
scalar MeshLAN.host[0].pingApp[22] numLost:last 177
attr interpolationmode none
attr title "pings lost, last"
scalar MeshLAN.host[0].pingApp[22] rtt:mean 0.0081496525283841
attr interpolationmode none
attr title "ping round-trip time, mean"
attr unit s
scalar MeshLAN.host[0].pingApp[23] "Pings sent" 390
scalar MeshLAN.host[0].pingApp[23] "ping loss rate (%)" 44.102564102564
scalar MeshLAN.host[0].pingApp[23] "ping out-of-order rate (%)" 0
scalar MeshLAN.host[0].pingApp[23] pingRxSeq:count 158
attr interpolationmode none
attr title "ping rx seq, count"
scalar MeshLAN.host[0].pingApp[23] pingTxSeq:count 295
attr interpolationmode none
attr title "ping tx seq, count"
scalar MeshLAN.host[0].pingApp[23] numOutOfOrderArrivals:last nan
attr interpolationmode none
attr title "ping out-of-order arrivals, last"
scalar MeshLAN.host[0].pingApp[23] numLost:last 169
attr interpolationmode none
attr title "pings lost, last"
scalar MeshLAN.host[0].pingApp[23] rtt:mean 0.0067076430807936
attr interpolationmode none
attr title "ping round-trip time, mean"
attr unit s
scalar MeshLAN.host[0].pingApp[24] "Pings sent" 399
scalar MeshLAN.host[0].pingApp[24] "ping loss rate (%)" 40.350877192982
scalar MeshLAN.host[0].pingApp[24] "ping out-of-order rate (%)" 0
scalar MeshLAN.host[0].pingApp[24] pingRxSeq:count 177
attr interpolationmode none
attr title "ping rx seq, count"
scalar MeshLAN.host[0].pingApp[24] pingTxSeq:count 296
attr interpolationmode none
attr title "ping tx seq, count"
scalar MeshLAN.host[0].pingApp[24] numOutOfOrderArrivals:last nan
attr interpolationmode none
attr title "ping out-of-order arrivals, last"
scalar MeshLAN.host[0].pingApp[24] numLost:last 161
attr interpolationmode none
attr title "pings lost, last"
scalar MeshLAN.host[0].pingApp[24] rtt:mean 0.0081896704558914
attr interpolationmode none
attr title "ping round-trip time, mean"
attr unit s
scalar MeshLAN.host[0].pingApp[25] "Pings sent" 390
scalar MeshLAN.host[0].pingApp[25] "ping loss rate (%)" 47.692307692308
scalar MeshLAN.host[0].pingApp[25] "ping out-of-order rate (%)" 0
scalar MeshLAN.host[0].pingApp[25] pingRxSeq:count 158
attr interpolationmode none
attr title "ping rx seq, count"
scalar MeshLAN.host[0].pingApp[25] pingTxSeq:count 295
attr interpolationmode none
attr title "ping tx seq, count"
scalar MeshLAN.host[0].pingApp[25] numOutOfOrderArrivals:last nan
attr interpolationmode none
attr title "ping out-of-order arrivals, last"
scalar MeshLAN.host[0].pingApp[25] numLost:last 185
attr interpolationmode none
attr title "pings lost, last"
scalar MeshLAN.host[0].pingApp[25] rtt:mean 0.0080943303243226
attr interpolationmode none
attr title "ping round-trip time, mean"
attr unit s
scalar MeshLAN.host[0].pingApp[26] "Pings sent" 377
scalar MeshLAN.host[0].pingApp[26] "ping loss rate (%)" 46.153846153846
scalar MeshLAN.host[0].pingApp[26] "ping out-of-order rate (%)" 0.26525198938992
scalar MeshLAN.host[0].pingApp[26] pingRxSeq:count 147
attr interpolationmode none
attr title "ping rx seq, count"
scalar MeshLAN.host[0].pingApp[26] pingTxSeq:count 284
attr interpolationmode none
attr title "ping tx seq, count"
scalar MeshLAN.host[0].pingApp[26] numOutOfOrderArrivals:last 1
attr interpolationmode none
attr title "ping out-of-order arrivals, last"
scalar MeshLAN.host[0].pingApp[26] numLost:last 172
attr interpolationmode none
attr title "pings lost, last"
scalar MeshLAN.host[0].pingApp[26] rtt:mean 0.006807703334415
attr interpolationmode none
attr title "ping round-trip time, mean"
attr unit s
scalar MeshLAN.host[0].pingApp[27] "Pings sent" 388
scalar MeshLAN.host[0].pingApp[27] "ping loss rate (%)" 47.164948453608
scalar MeshLAN.host[0].pingApp[27] "ping out-of-order rate (%)" 0.25773195876289
scalar MeshLAN.host[0].pingApp[27] pingRxSeq:count 163
attr interpolationmode none
attr title "ping rx seq, count"
scalar MeshLAN.host[0].pingApp[27] pingTxSeq:count 301
attr interpolationmode none
attr title "ping tx seq, count"
scalar MeshLAN.host[0].pingApp[27] numOutOfOrderArrivals:last 1
attr interpolationmode none
attr title "ping out-of-order arrivals, last"
scalar MeshLAN.host[0].pingApp[27] numLost:last 182
attr interpolationmode none
attr title "pings lost, last"
scalar MeshLAN.host[0].pingApp[27] rtt:mean 0.0080249818578457
attr interpolationmode none
attr title "ping round-trip time, mean"
attr unit s
scalar MeshLAN.host[0].pingApp[28] "Pings sent" 376
scalar MeshLAN.host[0].pingApp[28] "ping loss rate (%)" 43.882978723404
scalar MeshLAN.host[0].pingApp[28] "ping out-of-order rate (%)" 0
scalar MeshLAN.host[0].pingApp[28] pingRxSeq:count 156
attr interpolationmode none
attr title "ping rx seq, count"
scalar MeshLAN.host[0].pingApp[28] pingTxSeq:count 291
attr interpolationmode none
attr title "ping tx seq, count"
scalar MeshLAN.host[0].pingApp[28] numOutOfOrderArrivals:last nan
attr interpolationmode none
attr title "ping out-of-order arrivals, last"
scalar MeshLAN.host[0].pingApp[28] numLost:last 165
attr interpolationmode none
attr title "pings lost, last"
scalar MeshLAN.host[0].pingApp[28] rtt:mean 0.00822829260675
attr interpolationmode none
attr title "ping round-trip time, mean"
attr unit s
scalar MeshLAN.host[0].pingApp[29] "Pings sent" 370
scalar MeshLAN.host[0].pingApp[29] "ping loss rate (%)" 45.405405405405
scalar MeshLAN.host[0].pingApp[29] "ping out-of-order rate (%)" 0
scalar MeshLAN.host[0].pingApp[29] pingRxSeq:count 149
attr interpolationmode none
attr title "ping rx seq, count"
scalar MeshLAN.host[0].pingApp[29] pingTxSeq:count 274
attr interpolationmode none
attr title "ping tx seq, count"
scalar MeshLAN.host[0].pingApp[29] numOutOfOrderArrivals:last nan
attr interpolationmode none
attr title "ping out-of-order arrivals, last"
scalar MeshLAN.host[0].pingApp[29] numLost:last 165
attr interpolationmode none
attr title "pings lost, last"
scalar MeshLAN.host[0].pingApp[29] rtt:mean 0.0077526448375034
attr interpolationmode none
attr title "ping round-trip time, mean"
attr unit s
scalar MeshLAN.host[0].pingApp[30] "Pings sent" 392
scalar MeshLAN.host[0].pingApp[30] "ping loss rate (%)" 46.938775510204
scalar MeshLAN.host[0].pingApp[30] "ping out-of-order rate (%)" 0
scalar MeshLAN.host[0].pingApp[30] pingRxSeq:count 160
attr interpolationmode none
attr title "ping rx seq, count"
scalar MeshLAN.host[0].pingApp[30] pingTxSeq:count 304
attr interpolationmode none
attr title "ping tx seq, count"
scalar MeshLAN.host[0].pingApp[30] numOutOfOrderArrivals:last nan
attr interpolationmode none
attr title "ping out-of-order arrivals, last"
scalar MeshLAN.host[0].pingApp[30] numLost:last 184
attr interpolationmode none
attr title "pings lost, last"
scalar MeshLAN.host[0].pingApp[30] rtt:mean 0.0069910120425449
attr interpolationmode none
attr title "ping round-trip time, mean"
attr unit s
scalar MeshLAN.host[0].pingApp[31] "Pings sent" 381
scalar MeshLAN.host[0].pingApp[31] "ping loss rate (%)" 44.356955380577
scalar MeshLAN.host[0].pingApp[31] "ping out-of-order rate (%)" 0
scalar MeshLAN.host[0].pingApp[31] pingRxSeq:count 163
attr interpolationmode none
attr title "ping rx seq, count"
scalar MeshLAN.host[0].pingApp[31] pingTxSeq:count 291
attr interpolationmode none
attr title "ping tx seq, count"
scalar MeshLAN.host[0].pingApp[31] numOutOfOrderArrivals:last nan
attr interpolationmode none
attr title "ping out-of-order arrivals, last"
scalar MeshLAN.host[0].pingApp[31] numLost:last 169
attr interpolationmode none
attr title "pings lost, last"
scalar MeshLAN.host[0].pingApp[31] rtt:mean 0.0074279377522593
attr interpolationmode none
attr title "ping round-trip time, mean"
attr unit s
scalar MeshLAN.host[0].pingApp[32] "Pings sent" 392
scalar MeshLAN.host[0].pingApp[32] "ping loss rate (%)" 46.938775510204
scalar MeshLAN.host[0].pingApp[32] "ping out-of-order rate (%)" 0.51020408163265
scalar MeshLAN.host[0].pingApp[32] pingRxSeq:count 158
attr interpolationmode none
attr title "ping rx seq, count"
scalar MeshLAN.host[0].pingApp[32] pingTxSeq:count 300
attr interpolationmode none
attr title "ping tx seq, count"
scalar MeshLAN.host[0].pingApp[32] numOutOfOrderArrivals:last 2
attr interpolationmode none
attr title "ping out-of-order arrivals, last"
scalar MeshLAN.host[0].pingApp[32] numLost:last 184
attr interpolationmode none
attr title "pings lost, last"
scalar MeshLAN.host[0].pingApp[32] rtt:mean 0.0081683320332632
attr interpolationmode none
attr title "ping round-trip time, mean"
attr unit s
scalar MeshLAN.host[0].pingApp[33] "Pings sent" 403
scalar MeshLAN.host[0].pingApp[33] "ping loss rate (%)" 43.17617866005
scalar MeshLAN.host[0].pingApp[33] "ping out-of-order rate (%)" 0
scalar MeshLAN.host[0].pingApp[33] pingRxSeq:count 171
attr interpolationmode none
attr title "ping rx seq, count"
scalar MeshLAN.host[0].pingApp[33] pingTxSeq:count 303
attr interpolationmode none
attr title "ping tx seq, count"
scalar MeshLAN.host[0].pingApp[33] numOutOfOrderArrivals:last nan
attr interpolationmode none
attr title "ping out-of-order arrivals, last"
scalar MeshLAN.host[0].pingApp[33] numLost:last 173
attr interpolationmode none
attr title "pings lost, last"
scalar MeshLAN.host[0].pingApp[33] rtt:mean 0.0073712320799048
attr interpolationmode none
attr title "ping round-trip time, mean"
attr unit s
scalar MeshLAN.host[0].pingApp[34] "Pings sent" 398
scalar MeshLAN.host[0].pingApp[34] "ping loss rate (%)" 43.467336683417
scalar MeshLAN.host[0].pingApp[34] "ping out-of-order rate (%)" 0
scalar MeshLAN.host[0].pingApp[34] pingRxSeq:count 163
attr interpolationmode none
attr title "ping rx seq, count"
scalar MeshLAN.host[0].pingApp[34] pingTxSeq:count 295
attr interpolationmode none
attr title "ping tx seq, count"
scalar MeshLAN.host[0].pingApp[34] numOutOfOrderArrivals:last nan
attr interpolationmode none
attr title "ping out-of-order arrivals, last"
scalar MeshLAN.host[0].pingApp[34] numLost:last 171
attr interpolationmode none
attr title "pings lost, last"
scalar MeshLAN.host[0].pingApp[34] rtt:mean 0.0085439367286875
attr interpolationmode none
attr title "ping round-trip time, mean"
attr unit s
scalar MeshLAN.host[0].pingApp[35] "Pings sent" 408
scalar MeshLAN.host[0].pingApp[35] "ping loss rate (%)" 44.607843137255
scalar MeshLAN.host[0].pingApp[35] "ping out-of-order rate (%)" 0
scalar MeshLAN.host[0].pingApp[35] pingRxSeq:count 168
attr interpolationmode none
attr title "ping rx seq, count"
scalar MeshLAN.host[0].pingApp[35] pingTxSeq:count 302
attr interpolationmode none
attr title "ping tx seq, count"
scalar MeshLAN.host[0].pingApp[35] numOutOfOrderArrivals:last nan
attr interpolationmode none
attr title "ping out-of-order arrivals, last"
scalar MeshLAN.host[0].pingApp[35] numLost:last 182
attr interpolationmode none
attr title "pings lost, last"
scalar MeshLAN.host[0].pingApp[35] rtt:mean 0.0071194529733273
attr interpolationmode none
attr title "ping round-trip time, mean"
attr unit s
scalar MeshLAN.host[0].pingApp[36] "Pings sent" 383
scalar MeshLAN.host[0].pingApp[36] "ping loss rate (%)" 44.125326370757
scalar MeshLAN.host[0].pingApp[36] "ping out-of-order rate (%)" 0
scalar MeshLAN.host[0].pingApp[36] pingRxSeq:count 168
attr interpolationmode none
attr title "ping rx seq, count"
scalar MeshLAN.host[0].pingApp[36] pingTxSeq:count 293
attr interpolationmode none
attr title "ping tx seq, count"
scalar MeshLAN.host[0].pingApp[36] numOutOfOrderArrivals:last nan
attr interpolationmode none
attr title "ping out-of-order arrivals, last"
scalar MeshLAN.host[0].pingApp[36] numLost:last 168
attr interpolationmode none
attr title "pings lost, last"
scalar MeshLAN.host[0].pingApp[36] rtt:mean 0.0087169166933274
attr interpolationmode none
attr title "ping round-trip time, mean"
attr unit s
scalar MeshLAN.host[0].pingApp[37] "Pings sent" 388
scalar MeshLAN.host[0].pingApp[37] "ping loss rate (%)" 43.298969072165
scalar MeshLAN.host[0].pingApp[37] "ping out-of-order rate (%)" 0
scalar MeshLAN.host[0].pingApp[37] pingRxSeq:count 169
attr interpolationmode none
attr title "ping rx seq, count"
scalar MeshLAN.host[0].pingApp[37] pingTxSeq:count 292
attr interpolationmode none
attr title "ping tx seq, count"
scalar MeshLAN.host[0].pingApp[37] numOutOfOrderArrivals:last nan
attr interpolationmode none
attr title "ping out-of-order arrivals, last"
scalar MeshLAN.host[0].pingApp[37] numLost:last 167
attr interpolationmode none
attr title "pings lost, last"
scalar MeshLAN.host[0].pingApp[37] rtt:mean 0.0079721631202182
attr interpolationmode none
attr title "ping round-trip time, mean"
attr unit s
scalar MeshLAN.host[0].pingApp[38] "Pings sent" 383
scalar MeshLAN.host[0].pingApp[38] "ping loss rate (%)" 43.864229765013
scalar MeshLAN.host[0].pingApp[38] "ping out-of-order rate (%)" 0
scalar MeshLAN.host[0].pingApp[38] pingRxSeq:count 165
attr interpolationmode none
attr title "ping rx seq, count"
scalar MeshLAN.host[0].pingApp[38] pingTxSeq:count 293
attr interpolationmode none
attr title "ping tx seq, count"
scalar MeshLAN.host[0].pingApp[38] numOutOfOrderArrivals:last nan
attr interpolationmode none
attr title "ping out-of-order arrivals, last"
scalar MeshLAN.host[0].pingApp[38] numLost:last 167
attr interpolationmode none
attr title "pings lost, last"
scalar MeshLAN.host[0].pingApp[38] rtt:mean 0.0079878463752222
attr interpolationmode none
attr title "ping round-trip time, mean"
attr unit s
scalar MeshLAN.host[0].pingApp[39] "Pings sent" 385
scalar MeshLAN.host[0].pingApp[39] "ping loss rate (%)" 43.116883116883
scalar MeshLAN.host[0].pingApp[39] "ping out-of-order rate (%)" 0
scalar MeshLAN.host[0].pingApp[39] pingRxSeq:count 168
attr interpolationmode none
attr title "ping rx seq, count"
scalar MeshLAN.host[0].pingApp[39] pingTxSeq:count 292
attr interpolationmode none
attr title "ping tx seq, count"
scalar MeshLAN.host[0].pingApp[39] numOutOfOrderArrivals:last nan
attr interpolationmode none
attr title "ping out-of-order arrivals, last"
scalar MeshLAN.host[0].pingApp[39] numLost:last 166
attr interpolationmode none
attr title "pings lost, last"
scalar MeshLAN.host[0].pingApp[39] rtt:mean 0.0082640100497048
attr interpolationmode none
attr title "ping round-trip time, mean"
attr unit s
scalar MeshLAN.host[0].pingApp[40] "Pings sent" 370
scalar MeshLAN.host[0].pingApp[40] "ping loss rate (%)" 46.486486486486
scalar MeshLAN.host[0].pingApp[40] "ping out-of-order rate (%)" 0
scalar MeshLAN.host[0].pingApp[40] pingRxSeq:count 144
attr interpolationmode none
attr title "ping rx seq, count"
scalar MeshLAN.host[0].pingApp[40] pingTxSeq:count 274
attr interpolationmode none
attr title "ping tx seq, count"
scalar MeshLAN.host[0].pingApp[40] numOutOfOrderArrivals:last nan
attr interpolationmode none
attr title "ping out-of-order arrivals, last"
scalar MeshLAN.host[0].pingApp[40] numLost:last 172
attr interpolationmode none
attr title "pings lost, last"
scalar MeshLAN.host[0].pingApp[40] rtt:mean 0.0068022364091597
attr interpolationmode none
attr title "ping round-trip time, mean"
attr unit s
scalar MeshLAN.host[0].pingApp[41] "Pings sent" 388
scalar MeshLAN.host[0].pingApp[41] "ping loss rate (%)" 42.268041237113
scalar MeshLAN.host[0].pingApp[41] "ping out-of-order rate (%)" 0
scalar MeshLAN.host[0].pingApp[41] pingRxSeq:count 167
attr interpolationmode none
attr title "ping rx seq, count"
scalar MeshLAN.host[0].pingApp[41] pingTxSeq:count 298
attr interpolationmode none
attr title "ping tx seq, count"
scalar MeshLAN.host[0].pingApp[41] numOutOfOrderArrivals:last nan
attr interpolationmode none
attr title "ping out-of-order arrivals, last"
scalar MeshLAN.host[0].pingApp[41] numLost:last 163
attr interpolationmode none
attr title "pings lost, last"
scalar MeshLAN.host[0].pingApp[41] rtt:mean 0.008242967639561
attr interpolationmode none
attr title "ping round-trip time, mean"
attr unit s
scalar MeshLAN.host[0].pingApp[42] "Pings sent" 379
scalar MeshLAN.host[0].pingApp[42] "ping loss rate (%)" 42.21635883905
scalar MeshLAN.host[0].pingApp[42] "ping out-of-order rate (%)" 0.26385224274406
scalar MeshLAN.host[0].pingApp[42] pingRxSeq:count 167
attr interpolationmode none
attr title "ping rx seq, count"
scalar MeshLAN.host[0].pingApp[42] pingTxSeq:count 286
attr interpolationmode none
attr title "ping tx seq, count"
scalar MeshLAN.host[0].pingApp[42] numOutOfOrderArrivals:last 1
attr interpolationmode none
attr title "ping out-of-order arrivals, last"
scalar MeshLAN.host[0].pingApp[42] numLost:last 160
attr interpolationmode none
attr title "pings lost, last"
scalar MeshLAN.host[0].pingApp[42] rtt:mean 0.0073543325316871
attr interpolationmode none
attr title "ping round-trip time, mean"
attr unit s
scalar MeshLAN.host[0].pingApp[43] "Pings sent" 374
scalar MeshLAN.host[0].pingApp[43] "ping loss rate (%)" 44.652406417112
scalar MeshLAN.host[0].pingApp[43] "ping out-of-order rate (%)" 0
scalar MeshLAN.host[0].pingApp[43] pingRxSeq:count 158
attr interpolationmode none
attr title "ping rx seq, count"
scalar MeshLAN.host[0].pingApp[43] pingTxSeq:count 287
attr interpolationmode none
attr title "ping tx seq, count"
scalar MeshLAN.host[0].pingApp[43] numOutOfOrderArrivals:last nan
attr interpolationmode none
attr title "ping out-of-order arrivals, last"
scalar MeshLAN.host[0].pingApp[43] numLost:last 167
attr interpolationmode none
attr title "pings lost, last"
scalar MeshLAN.host[0].pingApp[43] rtt:mean 0.0069214062445897
attr interpolationmode none
attr title "ping round-trip time, mean"
attr unit s
scalar MeshLAN.host[0].pingApp[44] "Pings sent" 384
scalar MeshLAN.host[0].pingApp[44] "ping loss rate (%)" 40.364583333333
scalar MeshLAN.host[0].pingApp[44] "ping out-of-order rate (%)" 0
scalar MeshLAN.host[0].pingApp[44] pingRxSeq:count 171
attr interpolationmode none
attr title "ping rx seq, count"
scalar MeshLAN.host[0].pingApp[44] pingTxSeq:count 292
attr interpolationmode none
attr title "ping tx seq, count"
scalar MeshLAN.host[0].pingApp[44] numOutOfOrderArrivals:last nan
attr interpolationmode none
attr title "ping out-of-order arrivals, last"
scalar MeshLAN.host[0].pingApp[44] numLost:last 154
attr interpolationmode none
attr title "pings lost, last"
scalar MeshLAN.host[0].pingApp[44] rtt:mean 0.0084109867739337
attr interpolationmode none
attr title "ping round-trip time, mean"
attr unit s
scalar MeshLAN.host[0].pingApp[45] "Pings sent" 397
scalar MeshLAN.host[0].pingApp[45] "ping loss rate (%)" 45.340050377834
scalar MeshLAN.host[0].pingApp[45] "ping out-of-order rate (%)" 0
scalar MeshLAN.host[0].pingApp[45] pingRxSeq:count 170
attr interpolationmode none
attr title "ping rx seq, count"
scalar MeshLAN.host[0].pingApp[45] pingTxSeq:count 302
attr interpolationmode none
attr title "ping tx seq, count"
scalar MeshLAN.host[0].pingApp[45] numOutOfOrderArrivals:last nan
attr interpolationmode none
attr title "ping out-of-order arrivals, last"
scalar MeshLAN.host[0].pingApp[45] numLost:last 180
attr interpolationmode none
attr title "pings lost, last"
scalar MeshLAN.host[0].pingApp[45] rtt:mean 0.0088497785294036
attr interpolationmode none
attr title "ping round-trip time, mean"
attr unit s
scalar MeshLAN.host[0].pingApp[46] "Pings sent" 379
scalar MeshLAN.host[0].pingApp[46] "ping loss rate (%)" 40.369393139842
scalar MeshLAN.host[0].pingApp[46] "ping out-of-order rate (%)" 0
scalar MeshLAN.host[0].pingApp[46] pingRxSeq:count 175
attr interpolationmode none
attr title "ping rx seq, count"
scalar MeshLAN.host[0].pingApp[46] pingTxSeq:count 292
attr interpolationmode none
attr title "ping tx seq, count"
scalar MeshLAN.host[0].pingApp[46] numOutOfOrderArrivals:last nan
attr interpolationmode none
attr title "ping out-of-order arrivals, last"
scalar MeshLAN.host[0].pingApp[46] numLost:last 152
attr interpolationmode none
attr title "pings lost, last"
scalar MeshLAN.host[0].pingApp[46] rtt:mean 0.0076174956151744
attr interpolationmode none
attr title "ping round-trip time, mean"
attr unit s
scalar MeshLAN.host[0].pingApp[47] "Pings sent" 380
scalar MeshLAN.host[0].pingApp[47] "ping loss rate (%)" 43.421052631579
scalar MeshLAN.host[0].pingApp[47] "ping out-of-order rate (%)" 0
scalar MeshLAN.host[0].pingApp[47] pingRxSeq:count 169
attr interpolationmode none
attr title "ping rx seq, count"
scalar MeshLAN.host[0].pingApp[47] pingTxSeq:count 286
attr interpolationmode none
attr title "ping tx seq, count"
scalar MeshLAN.host[0].pingApp[47] numOutOfOrderArrivals:last nan
attr interpolationmode none
attr title "ping out-of-order arrivals, last"
scalar MeshLAN.host[0].pingApp[47] numLost:last 160
attr interpolationmode none
attr title "pings lost, last"
scalar MeshLAN.host[0].pingApp[47] rtt:mean 0.006939285398631
attr interpolationmode none
attr title "ping round-trip time, mean"
attr unit s
scalar MeshLAN.host[0].pingApp[48] "Pings sent" 379
scalar MeshLAN.host[0].pingApp[48] "ping loss rate (%)" 46.174142480211
scalar MeshLAN.host[0].pingApp[48] "ping out-of-order rate (%)" 0
scalar MeshLAN.host[0].pingApp[48] pingRxSeq:count 158
attr interpolationmode none
attr title "ping rx seq, count"
scalar MeshLAN.host[0].pingApp[48] pingTxSeq:count 289
attr interpolationmode none
attr title "ping tx seq, count"
scalar MeshLAN.host[0].pingApp[48] numOutOfOrderArrivals:last nan
attr interpolationmode none
attr title "ping out-of-order arrivals, last"
scalar MeshLAN.host[0].pingApp[48] numLost:last 174
attr interpolationmode none
attr title "pings lost, last"
scalar MeshLAN.host[0].pingApp[48] rtt:mean 0.0074299893540325
attr interpolationmode none
attr title "ping round-trip time, mean"
attr unit s
scalar MeshLAN.host[0].pingApp[49] "Pings sent" 376
scalar MeshLAN.host[0].pingApp[49] "ping loss rate (%)" 44.414893617021
scalar MeshLAN.host[0].pingApp[49] "ping out-of-order rate (%)" 0.26595744680851
scalar MeshLAN.host[0].pingApp[49] pingRxSeq:count 153
attr interpolationmode none
attr title "ping rx seq, count"
scalar MeshLAN.host[0].pingApp[49] pingTxSeq:count 281
attr interpolationmode none
attr title "ping tx seq, count"
scalar MeshLAN.host[0].pingApp[49] numOutOfOrderArrivals:last nan
attr interpolationmode none
attr title "ping out-of-order arrivals, last"
scalar MeshLAN.host[0].pingApp[49] numLost:last 165
attr interpolationmode none
attr title "pings lost, last"
scalar MeshLAN.host[0].pingApp[49] rtt:mean 0.0068059138849
attr interpolationmode none
attr title "ping round-trip time, mean"
attr unit s
scalar MeshLAN.host[0].pingApp[50] "Pings sent" 393
scalar MeshLAN.host[0].pingApp[50] "ping loss rate (%)" 44.274809160305
scalar MeshLAN.host[0].pingApp[50] "ping out-of-order rate (%)" 0
scalar MeshLAN.host[0].pingApp[50] pingRxSeq:count 164
attr interpolationmode none
attr title "ping rx seq, count"
scalar MeshLAN.host[0].pingApp[50] pingTxSeq:count 297
attr interpolationmode none
attr title "ping tx seq, count"
scalar MeshLAN.host[0].pingApp[50] numOutOfOrderArrivals:last nan
attr interpolationmode none
attr title "ping out-of-order arrivals, last"
scalar MeshLAN.host[0].pingApp[50] numLost:last 174
attr interpolationmode none
attr title "pings lost, last"
scalar MeshLAN.host[0].pingApp[50] rtt:mean 0.0068225834664815
attr interpolationmode none
attr title "ping round-trip time, mean"
attr unit s
scalar MeshLAN.host[0].pingApp[51] "Pings sent" 378
scalar MeshLAN.host[0].pingApp[51] "ping loss rate (%)" 39.94708994709
scalar MeshLAN.host[0].pingApp[51] "ping out-of-order rate (%)" 0
scalar MeshLAN.host[0].pingApp[51] pingRxSeq:count 165
attr interpolationmode none
attr title "ping rx seq, count"
scalar MeshLAN.host[0].pingApp[51] pingTxSeq:count 281
attr interpolationmode none
attr title "ping tx seq, count"
scalar MeshLAN.host[0].pingApp[51] numOutOfOrderArrivals:last nan
attr interpolationmode none
attr title "ping out-of-order arrivals, last"
scalar MeshLAN.host[0].pingApp[51] numLost:last 150
attr interpolationmode none
attr title "pings lost, last"
scalar MeshLAN.host[0].pingApp[51] rtt:mean 0.0084922124593292
attr interpolationmode none
attr title "ping round-trip time, mean"
attr unit s
scalar MeshLAN.host[0].pingApp[52] "Pings sent" 377
scalar MeshLAN.host[0].pingApp[52] "ping loss rate (%)" 41.114058355438
scalar MeshLAN.host[0].pingApp[52] "ping out-of-order rate (%)" 0
scalar MeshLAN.host[0].pingApp[52] pingRxSeq:count 176
attr interpolationmode none
attr title "ping rx seq, count"
scalar MeshLAN.host[0].pingApp[52] pingTxSeq:count 291
attr interpolationmode none
attr title "ping tx seq, count"
scalar MeshLAN.host[0].pingApp[52] numOutOfOrderArrivals:last nan
attr interpolationmode none
attr title "ping out-of-order arrivals, last"
scalar MeshLAN.host[0].pingApp[52] numLost:last 155
attr interpolationmode none
attr title "pings lost, last"
scalar MeshLAN.host[0].pingApp[52] rtt:mean 0.0078619665699412
attr interpolationmode none
attr title "ping round-trip time, mean"
attr unit s
scalar MeshLAN.host[0].pingApp[53] "Pings sent" 407
scalar MeshLAN.host[0].pingApp[53] "ping loss rate (%)" 45.700245700246
scalar MeshLAN.host[0].pingApp[53] "ping out-of-order rate (%)" 0
scalar MeshLAN.host[0].pingApp[53] pingRxSeq:count 171
attr interpolationmode none
attr title "ping rx seq, count"
scalar MeshLAN.host[0].pingApp[53] pingTxSeq:count 311
attr interpolationmode none
attr title "ping tx seq, count"
scalar MeshLAN.host[0].pingApp[53] numOutOfOrderArrivals:last nan
attr interpolationmode none
attr title "ping out-of-order arrivals, last"
scalar MeshLAN.host[0].pingApp[53] numLost:last 185
attr interpolationmode none
attr title "pings lost, last"
scalar MeshLAN.host[0].pingApp[53] rtt:mean 0.0079275620899881
attr interpolationmode none
attr title "ping round-trip time, mean"
attr unit s
scalar MeshLAN.host[0].pingApp[54] "Pings sent" 393
scalar MeshLAN.host[0].pingApp[54] "ping loss rate (%)" 46.310432569975
scalar MeshLAN.host[0].pingApp[54] "ping out-of-order rate (%)" 0
scalar MeshLAN.host[0].pingApp[54] pingRxSeq:count 158
attr interpolationmode none
attr title "ping rx seq, count"
scalar MeshLAN.host[0].pingApp[54] pingTxSeq:count 297
attr interpolationmode none
attr title "ping tx seq, count"
scalar MeshLAN.host[0].pingApp[54] numOutOfOrderArrivals:last nan
attr interpolationmode none
attr title "ping out-of-order arrivals, last"
scalar MeshLAN.host[0].pingApp[54] numLost:last 182
attr interpolationmode none
attr title "pings lost, last"
scalar MeshLAN.host[0].pingApp[54] rtt:mean 0.0082714472943613
attr interpolationmode none
attr title "ping round-trip time, mean"
attr unit s
scalar MeshLAN.host[0].pingApp[55] "Pings sent" 383
scalar MeshLAN.host[0].pingApp[55] "ping loss rate (%)" 45.430809399478
scalar MeshLAN.host[0].pingApp[55] "ping out-of-order rate (%)" 0.26109660574413
scalar MeshLAN.host[0].pingApp[55] pingRxSeq:count 158
attr interpolationmode none
attr title "ping rx seq, count"
scalar MeshLAN.host[0].pingApp[55] pingTxSeq:count 287
attr interpolationmode none
attr title "ping tx seq, count"
scalar MeshLAN.host[0].pingApp[55] numOutOfOrderArrivals:last nan
attr interpolationmode none
attr title "ping out-of-order arrivals, last"
scalar MeshLAN.host[0].pingApp[55] numLost:last 173
attr interpolationmode none
attr title "pings lost, last"
scalar MeshLAN.host[0].pingApp[55] rtt:mean 0.0082400130254645
attr interpolationmode none
attr title "ping round-trip time, mean"
attr unit s
scalar MeshLAN.host[0].pingApp[56] "Pings sent" 382
scalar MeshLAN.host[0].pingApp[56] "ping loss rate (%)" 39.005235602094
scalar MeshLAN.host[0].pingApp[56] "ping out-of-order rate (%)" 0
scalar MeshLAN.host[0].pingApp[56] pingRxSeq:count 173
attr interpolationmode none
attr title "ping rx seq, count"
scalar MeshLAN.host[0].pingApp[56] pingTxSeq:count 284
attr interpolationmode none
attr title "ping tx seq, count"
scalar MeshLAN.host[0].pingApp[56] numOutOfOrderArrivals:last nan
attr interpolationmode none
attr title "ping out-of-order arrivals, last"
scalar MeshLAN.host[0].pingApp[56] numLost:last 147
attr interpolationmode none
attr title "pings lost, last"
scalar MeshLAN.host[0].pingApp[56] rtt:mean 0.0086007402004353
attr interpolationmode none
attr title "ping round-trip time, mean"
attr unit s
scalar MeshLAN.host[0].pingApp[57] "Pings sent" 380
scalar MeshLAN.host[0].pingApp[57] "ping loss rate (%)" 50
scalar MeshLAN.host[0].pingApp[57] "ping out-of-order rate (%)" 0
scalar MeshLAN.host[0].pingApp[57] pingRxSeq:count 139
attr interpolationmode none
attr title "ping rx seq, count"
scalar MeshLAN.host[0].pingApp[57] pingTxSeq:count 275
attr interpolationmode none
attr title "ping tx seq, count"
scalar MeshLAN.host[0].pingApp[57] numOutOfOrderArrivals:last nan
attr interpolationmode none
attr title "ping out-of-order arrivals, last"
scalar MeshLAN.host[0].pingApp[57] numLost:last 187
attr interpolationmode none
attr title "pings lost, last"
scalar MeshLAN.host[0].pingApp[57] rtt:mean 0.008473116720763
attr interpolationmode none
attr title "ping round-trip time, mean"
attr unit s
scalar MeshLAN.host[0].pingApp[58] "Pings sent" 385
scalar MeshLAN.host[0].pingApp[58] "ping loss rate (%)" 41.038961038961
scalar MeshLAN.host[0].pingApp[58] "ping out-of-order rate (%)" 0
scalar MeshLAN.host[0].pingApp[58] pingRxSeq:count 180
attr interpolationmode none
attr title "ping rx seq, count"
scalar MeshLAN.host[0].pingApp[58] pingTxSeq:count 292
attr interpolationmode none
attr title "ping tx seq, count"
scalar MeshLAN.host[0].pingApp[58] numOutOfOrderArrivals:last nan
attr interpolationmode none
attr title "ping out-of-order arrivals, last"
scalar MeshLAN.host[0].pingApp[58] numLost:last 158
attr interpolationmode none
attr title "pings lost, last"
scalar MeshLAN.host[0].pingApp[58] rtt:mean 0.0070342376579829
attr interpolationmode none
attr title "ping round-trip time, mean"
attr unit s
scalar MeshLAN.host[0].pingApp[59] "Pings sent" 409
scalar MeshLAN.host[0].pingApp[59] "ping loss rate (%)" 40.831295843521
scalar MeshLAN.host[0].pingApp[59] "ping out-of-order rate (%)" 0
scalar MeshLAN.host[0].pingApp[59] pingRxSeq:count 187
attr interpolationmode none
attr title "ping rx seq, count"
scalar MeshLAN.host[0].pingApp[59] pingTxSeq:count 312
attr interpolationmode none
attr title "ping tx seq, count"
scalar MeshLAN.host[0].pingApp[59] numOutOfOrderArrivals:last nan
attr interpolationmode none
attr title "ping out-of-order arrivals, last"
scalar MeshLAN.host[0].pingApp[59] numLost:last 167
attr interpolationmode none
attr title "pings lost, last"
scalar MeshLAN.host[0].pingApp[59] rtt:mean 0.0072266194118172
attr interpolationmode none
attr title "ping round-trip time, mean"
attr unit s
scalar MeshLAN.host[0].pingApp[60] "Pings sent" 396
scalar MeshLAN.host[0].pingApp[60] "ping loss rate (%)" 42.929292929293
scalar MeshLAN.host[0].pingApp[60] "ping out-of-order rate (%)" 0
scalar MeshLAN.host[0].pingApp[60] pingRxSeq:count 171
attr interpolationmode none
attr title "ping rx seq, count"
scalar MeshLAN.host[0].pingApp[60] pingTxSeq:count 296
attr interpolationmode none
attr title "ping tx seq, count"
scalar MeshLAN.host[0].pingApp[60] numOutOfOrderArrivals:last nan
attr interpolationmode none
attr title "ping out-of-order arrivals, last"
scalar MeshLAN.host[0].pingApp[60] numLost:last 170
attr interpolationmode none
attr title "pings lost, last"
scalar MeshLAN.host[0].pingApp[60] rtt:mean 0.0082961086052083
attr interpolationmode none
attr title "ping round-trip time, mean"
attr unit s
scalar MeshLAN.host[0].pingApp[61] "Pings sent" 364
scalar MeshLAN.host[0].pingApp[61] "ping loss rate (%)" 45.604395604396
scalar MeshLAN.host[0].pingApp[61] "ping out-of-order rate (%)" 0
scalar MeshLAN.host[0].pingApp[61] pingRxSeq:count 157
attr interpolationmode none
attr title "ping rx seq, count"
scalar MeshLAN.host[0].pingApp[61] pingTxSeq:count 280
attr interpolationmode none
attr title "ping tx seq, count"
scalar MeshLAN.host[0].pingApp[61] numOutOfOrderArrivals:last nan
attr interpolationmode none
attr title "ping out-of-order arrivals, last"
scalar MeshLAN.host[0].pingApp[61] numLost:last 164
attr interpolationmode none
attr title "pings lost, last"
scalar MeshLAN.host[0].pingApp[61] rtt:mean 0.0080073649987006
attr interpolationmode none
attr title "ping round-trip time, mean"
attr unit s
scalar MeshLAN.host[0].pingApp[62] "Pings sent" 377
scalar MeshLAN.host[0].pingApp[62] "ping loss rate (%)" 42.970822281167
scalar MeshLAN.host[0].pingApp[62] "ping out-of-order rate (%)" 0
scalar MeshLAN.host[0].pingApp[62] pingRxSeq:count 170
attr interpolationmode none
attr title "ping rx seq, count"
scalar MeshLAN.host[0].pingApp[62] pingTxSeq:count 288
attr interpolationmode none
attr title "ping tx seq, count"
scalar MeshLAN.host[0].pingApp[62] numOutOfOrderArrivals:last nan
attr interpolationmode none
attr title "ping out-of-order arrivals, last"
scalar MeshLAN.host[0].pingApp[62] numLost:last 161
attr interpolationmode none
attr title "pings lost, last"
scalar MeshLAN.host[0].pingApp[62] rtt:mean 0.0078706028599515
attr interpolationmode none
attr title "ping round-trip time, mean"
attr unit s
scalar MeshLAN.host[0].pingApp[63] "Pings sent" 385
scalar MeshLAN.host[0].pingApp[63] "ping loss rate (%)" 41.818181818182
scalar MeshLAN.host[0].pingApp[63] "ping out-of-order rate (%)" 0
scalar MeshLAN.host[0].pingApp[63] pingRxSeq:count 169
attr interpolationmode none
attr title "ping rx seq, count"
scalar MeshLAN.host[0].pingApp[63] pingTxSeq:count 292
attr interpolationmode none
attr title "ping tx seq, count"
scalar MeshLAN.host[0].pingApp[63] numOutOfOrderArrivals:last nan
attr interpolationmode none
attr title "ping out-of-order arrivals, last"
scalar MeshLAN.host[0].pingApp[63] numLost:last 160
attr interpolationmode none
attr title "pings lost, last"
scalar MeshLAN.host[0].pingApp[63] rtt:mean 0.007995702361131
attr interpolationmode none
attr title "ping round-trip time, mean"
attr unit s
scalar MeshLAN.host[0].pingApp[64] "Pings sent" 382
scalar MeshLAN.host[0].pingApp[64] "ping loss rate (%)" 43.455497382199
scalar MeshLAN.host[0].pingApp[64] "ping out-of-order rate (%)" 0
scalar MeshLAN.host[0].pingApp[64] pingRxSeq:count 158
attr interpolationmode none
attr title "ping rx seq, count"
scalar MeshLAN.host[0].pingApp[64] pingTxSeq:count 283
attr interpolationmode none
attr title "ping tx seq, count"
scalar MeshLAN.host[0].pingApp[64] numOutOfOrderArrivals:last nan
attr interpolationmode none
attr title "ping out-of-order arrivals, last"
scalar MeshLAN.host[0].pingApp[64] numLost:last 166
attr interpolationmode none
attr title "pings lost, last"
scalar MeshLAN.host[0].pingApp[64] rtt:mean 0.0080970253618333
attr interpolationmode none
attr title "ping round-trip time, mean"
attr unit s
scalar MeshLAN.host[0].pingApp[65] "Pings sent" 375
scalar MeshLAN.host[0].pingApp[65] "ping loss rate (%)" 50.4
scalar MeshLAN.host[0].pingApp[65] "ping out-of-order rate (%)" 0
scalar MeshLAN.host[0].pingApp[65] pingRxSeq:count 137
attr interpolationmode none
attr title "ping rx seq, count"
scalar MeshLAN.host[0].pingApp[65] pingTxSeq:count 279
attr interpolationmode none
attr title "ping tx seq, count"
scalar MeshLAN.host[0].pingApp[65] numOutOfOrderArrivals:last nan
attr interpolationmode none
attr title "ping out-of-order arrivals, last"
scalar MeshLAN.host[0].pingApp[65] numLost:last 189
attr interpolationmode none
attr title "pings lost, last"
scalar MeshLAN.host[0].pingApp[65] rtt:mean 0.0076523366716194
attr interpolationmode none
attr title "ping round-trip time, mean"
attr unit s
scalar MeshLAN.host[0].pingApp[66] "Pings sent" 388
scalar MeshLAN.host[0].pingApp[66] "ping loss rate (%)" 41.494845360825
scalar MeshLAN.host[0].pingApp[66] "ping out-of-order rate (%)" 0.25773195876289
scalar MeshLAN.host[0].pingApp[66] pingRxSeq:count 172
attr interpolationmode none
attr title "ping rx seq, count"
scalar MeshLAN.host[0].pingApp[66] pingTxSeq:count 292
attr interpolationmode none
attr title "ping tx seq, count"
scalar MeshLAN.host[0].pingApp[66] numOutOfOrderArrivals:last nan
attr interpolationmode none
attr title "ping out-of-order arrivals, last"
scalar MeshLAN.host[0].pingApp[66] numLost:last 160
attr interpolationmode none
attr title "pings lost, last"
scalar MeshLAN.host[0].pingApp[66] rtt:mean 0.0084570900023941
attr interpolationmode none
attr title "ping round-trip time, mean"
attr unit s
scalar MeshLAN.host[0].pingApp[67] "Pings sent" 394
scalar MeshLAN.host[0].pingApp[67] "ping loss rate (%)" 44.416243654822
scalar MeshLAN.host[0].pingApp[67] "ping out-of-order rate (%)" 0
scalar MeshLAN.host[0].pingApp[67] pingRxSeq:count 167
attr interpolationmode none
attr title "ping rx seq, count"
scalar MeshLAN.host[0].pingApp[67] pingTxSeq:count 298
attr interpolationmode none
attr title "ping tx seq, count"
scalar MeshLAN.host[0].pingApp[67] numOutOfOrderArrivals:last nan
attr interpolationmode none
attr title "ping out-of-order arrivals, last"
scalar MeshLAN.host[0].pingApp[67] numLost:last 174
attr interpolationmode none
attr title "pings lost, last"
scalar MeshLAN.host[0].pingApp[67] rtt:mean 0.0077478095352099
attr interpolationmode none
attr title "ping round-trip time, mean"
attr unit s
scalar MeshLAN.host[0].pingApp[68] "Pings sent" 380
scalar MeshLAN.host[0].pingApp[68] "ping loss rate (%)" 46.052631578947
scalar MeshLAN.host[0].pingApp[68] "ping out-of-order rate (%)" 0
scalar MeshLAN.host[0].pingApp[68] pingRxSeq:count 154
attr interpolationmode none
attr title "ping rx seq, count"
scalar MeshLAN.host[0].pingApp[68] pingTxSeq:count 291
attr interpolationmode none
attr title "ping tx seq, count"
scalar MeshLAN.host[0].pingApp[68] numOutOfOrderArrivals:last nan
attr interpolationmode none
attr title "ping out-of-order arrivals, last"
scalar MeshLAN.host[0].pingApp[68] numLost:last 173
attr interpolationmode none
attr title "pings lost, last"
scalar MeshLAN.host[0].pingApp[68] rtt:mean 0.0076864882589216
attr interpolationmode none
attr title "ping round-trip time, mean"
attr unit s
scalar MeshLAN.host[0].pingApp[69] "Pings sent" 387
scalar MeshLAN.host[0].pingApp[69] "ping loss rate (%)" 43.152454780362
scalar MeshLAN.host[0].pingApp[69] "ping out-of-order rate (%)" 0
scalar MeshLAN.host[0].pingApp[69] pingRxSeq:count 166
attr interpolationmode none
attr title "ping rx seq, count"
scalar MeshLAN.host[0].pingApp[69] pingTxSeq:count 296
attr interpolationmode none
attr title "ping tx seq, count"
scalar MeshLAN.host[0].pingApp[69] numOutOfOrderArrivals:last nan
attr interpolationmode none
attr title "ping out-of-order arrivals, last"
scalar MeshLAN.host[0].pingApp[69] numLost:last 165
attr interpolationmode none
attr title "pings lost, last"
scalar MeshLAN.host[0].pingApp[69] rtt:mean 0.0083428885464634
attr interpolationmode none
attr title "ping round-trip time, mean"
attr unit s
scalar MeshLAN.host[0].pingApp[70] "Pings sent" 384
scalar MeshLAN.host[0].pingApp[70] "ping loss rate (%)" 47.135416666667
scalar MeshLAN.host[0].pingApp[70] "ping out-of-order rate (%)" 0
scalar MeshLAN.host[0].pingApp[70] pingRxSeq:count 155
attr interpolationmode none
attr title "ping rx seq, count"
scalar MeshLAN.host[0].pingApp[70] pingTxSeq:count 285
attr interpolationmode none
attr title "ping tx seq, count"
scalar MeshLAN.host[0].pingApp[70] numOutOfOrderArrivals:last nan
attr interpolationmode none
attr title "ping out-of-order arrivals, last"
scalar MeshLAN.host[0].pingApp[70] numLost:last 181
attr interpolationmode none
attr title "pings lost, last"
scalar MeshLAN.host[0].pingApp[70] rtt:mean 0.008390922761183
attr interpolationmode none
attr title "ping round-trip time, mean"
attr unit s
scalar MeshLAN.host[0].pingApp[71] "Pings sent" 396
scalar MeshLAN.host[0].pingApp[71] "ping loss rate (%)" 41.414141414141
scalar MeshLAN.host[0].pingApp[71] "ping out-of-order rate (%)" 0
scalar MeshLAN.host[0].pingApp[71] pingRxSeq:count 172
attr interpolationmode none
attr title "ping rx seq, count"
scalar MeshLAN.host[0].pingApp[71] pingTxSeq:count 296
attr interpolationmode none
attr title "ping tx seq, count"
scalar MeshLAN.host[0].pingApp[71] numOutOfOrderArrivals:last nan
attr interpolationmode none
attr title "ping out-of-order arrivals, last"
scalar MeshLAN.host[0].pingApp[71] numLost:last 162
attr interpolationmode none
attr title "pings lost, last"
scalar MeshLAN.host[0].pingApp[71] rtt:mean 0.008794398533432
attr interpolationmode none
attr title "ping round-trip time, mean"
attr unit s
scalar MeshLAN.host[0].pingApp[72] "Pings sent" 399
scalar MeshLAN.host[0].pingApp[72] "ping loss rate (%)" 44.611528822055
scalar MeshLAN.host[0].pingApp[72] "ping out-of-order rate (%)" 0.25062656641604
scalar MeshLAN.host[0].pingApp[72] pingRxSeq:count 164
attr interpolationmode none
attr title "ping rx seq, count"
scalar MeshLAN.host[0].pingApp[72] pingTxSeq:count 300
attr interpolationmode none
attr title "ping tx seq, count"
scalar MeshLAN.host[0].pingApp[72] numOutOfOrderArrivals:last nan
attr interpolationmode none
attr title "ping out-of-order arrivals, last"
scalar MeshLAN.host[0].pingApp[72] numLost:last 175
attr interpolationmode none
attr title "pings lost, last"
scalar MeshLAN.host[0].pingApp[72] rtt:mean 0.0078959034884348
attr interpolationmode none
attr title "ping round-trip time, mean"
attr unit s
scalar MeshLAN.host[0].pingApp[73] "Pings sent" 375
scalar MeshLAN.host[0].pingApp[73] "ping loss rate (%)" 45.866666666667
scalar MeshLAN.host[0].pingApp[73] "ping out-of-order rate (%)" 0
scalar MeshLAN.host[0].pingApp[73] pingRxSeq:count 162
attr interpolationmode none
attr title "ping rx seq, count"
scalar MeshLAN.host[0].pingApp[73] pingTxSeq:count 287
attr interpolationmode none
attr title "ping tx seq, count"
scalar MeshLAN.host[0].pingApp[73] numOutOfOrderArrivals:last nan
attr interpolationmode none
attr title "ping out-of-order arrivals, last"
scalar MeshLAN.host[0].pingApp[73] numLost:last 171
attr interpolationmode none
attr title "pings lost, last"
scalar MeshLAN.host[0].pingApp[73] rtt:mean 0.0073224794253038
attr interpolationmode none
attr title "ping round-trip time, mean"
attr unit s
scalar MeshLAN.host[0].pingApp[74] "Pings sent" 391
scalar MeshLAN.host[0].pingApp[74] "ping loss rate (%)" 41.687979539642
scalar MeshLAN.host[0].pingApp[74] "ping out-of-order rate (%)" 0
scalar MeshLAN.host[0].pingApp[74] pingRxSeq:count 167
attr interpolationmode none
attr title "ping rx seq, count"
scalar MeshLAN.host[0].pingApp[74] pingTxSeq:count 293
attr interpolationmode none
attr title "ping tx seq, count"
scalar MeshLAN.host[0].pingApp[74] numOutOfOrderArrivals:last nan
attr interpolationmode none
attr title "ping out-of-order arrivals, last"
scalar MeshLAN.host[0].pingApp[74] numLost:last 163
attr interpolationmode none
attr title "pings lost, last"
scalar MeshLAN.host[0].pingApp[74] rtt:mean 0.0083306809795337
attr interpolationmode none
attr title "ping round-trip time, mean"
attr unit s
scalar MeshLAN.host[0].pingApp[75] "Pings sent" 379
scalar MeshLAN.host[0].pingApp[75] "ping loss rate (%)" 45.382585751979
scalar MeshLAN.host[0].pingApp[75] "ping out-of-order rate (%)" 0
scalar MeshLAN.host[0].pingApp[75] pingRxSeq:count 159
attr interpolationmode none
attr title "ping rx seq, count"
scalar MeshLAN.host[0].pingApp[75] pingTxSeq:count 287
attr interpolationmode none
attr title "ping tx seq, count"
scalar MeshLAN.host[0].pingApp[75] numOutOfOrderArrivals:last nan
attr interpolationmode none
attr title "ping out-of-order arrivals, last"
scalar MeshLAN.host[0].pingApp[75] numLost:last 171
attr interpolationmode none
attr title "pings lost, last"
scalar MeshLAN.host[0].pingApp[75] rtt:mean 0.0074833338620769
attr interpolationmode none
attr title "ping round-trip time, mean"
attr unit s
scalar MeshLAN.host[0].pingApp[76] "Pings sent" 385
scalar MeshLAN.host[0].pingApp[76] "ping loss rate (%)" 39.74025974026
scalar MeshLAN.host[0].pingApp[76] "ping out-of-order rate (%)" 0
scalar MeshLAN.host[0].pingApp[76] pingRxSeq:count 167
attr interpolationmode none
attr title "ping rx seq, count"
scalar MeshLAN.host[0].pingApp[76] pingTxSeq:count 288
attr interpolationmode none
attr title "ping tx seq, count"
scalar MeshLAN.host[0].pingApp[76] numOutOfOrderArrivals:last nan
attr interpolationmode none
attr title "ping out-of-order arrivals, last"
scalar MeshLAN.host[0].pingApp[76] numLost:last 151
attr interpolationmode none
attr title "pings lost, last"
scalar MeshLAN.host[0].pingApp[76] rtt:mean 0.0081749364954785
attr interpolationmode none
attr title "ping round-trip time, mean"
attr unit s
scalar MeshLAN.host[0].pingApp[77] "Pings sent" 368
scalar MeshLAN.host[0].pingApp[77] "ping loss rate (%)" 41.576086956522
scalar MeshLAN.host[0].pingApp[77] "ping out-of-order rate (%)" 0
scalar MeshLAN.host[0].pingApp[77] pingRxSeq:count 161
attr interpolationmode none
attr title "ping rx seq, count"
scalar MeshLAN.host[0].pingApp[77] pingTxSeq:count 281
attr interpolationmode none
attr title "ping tx seq, count"
scalar MeshLAN.host[0].pingApp[77] numOutOfOrderArrivals:last nan
attr interpolationmode none
attr title "ping out-of-order arrivals, last"
scalar MeshLAN.host[0].pingApp[77] numLost:last 153
attr interpolationmode none
attr title "pings lost, last"
scalar MeshLAN.host[0].pingApp[77] rtt:mean 0.0079696970853962
attr interpolationmode none
attr title "ping round-trip time, mean"
attr unit s
scalar MeshLAN.host[0].pingApp[78] "Pings sent" 398
scalar MeshLAN.host[0].pingApp[78] "ping loss rate (%)" 39.447236180905
scalar MeshLAN.host[0].pingApp[78] "ping out-of-order rate (%)" 0
scalar MeshLAN.host[0].pingApp[78] pingRxSeq:count 178
attr interpolationmode none
attr title "ping rx seq, count"
scalar MeshLAN.host[0].pingApp[78] pingTxSeq:count 303
attr interpolationmode none
attr title "ping tx seq, count"
scalar MeshLAN.host[0].pingApp[78] numOutOfOrderArrivals:last nan
attr interpolationmode none
attr title "ping out-of-order arrivals, last"
scalar MeshLAN.host[0].pingApp[78] numLost:last 157
attr interpolationmode none
attr title "pings lost, last"
scalar MeshLAN.host[0].pingApp[78] rtt:mean 0.007167973609592
attr interpolationmode none
attr title "ping round-trip time, mean"
attr unit s
scalar MeshLAN.host[0].pingApp[79] "Pings sent" 374
scalar MeshLAN.host[0].pingApp[79] "ping loss rate (%)" 42.780748663102
scalar MeshLAN.host[0].pingApp[79] "ping out-of-order rate (%)" 0
scalar MeshLAN.host[0].pingApp[79] pingRxSeq:count 164
attr interpolationmode none
attr title "ping rx seq, count"
scalar MeshLAN.host[0].pingApp[79] pingTxSeq:count 291
attr interpolationmode none
attr title "ping tx seq, count"
scalar MeshLAN.host[0].pingApp[79] numOutOfOrderArrivals:last nan
attr interpolationmode none
attr title "ping out-of-order arrivals, last"
scalar MeshLAN.host[0].pingApp[79] numLost:last 160
attr interpolationmode none
attr title "pings lost, last"
scalar MeshLAN.host[0].pingApp[79] rtt:mean 0.0077710472839198
attr interpolationmode none
attr title "ping round-trip time, mean"
attr unit s
scalar MeshLAN.host[0].pingApp[80] "Pings sent" 409
scalar MeshLAN.host[0].pingApp[80] "ping loss rate (%)" 44.743276283619
scalar MeshLAN.host[0].pingApp[80] "ping out-of-order rate (%)" 0
scalar MeshLAN.host[0].pingApp[80] pingRxSeq:count 172
attr interpolationmode none
attr title "ping rx seq, count"
scalar MeshLAN.host[0].pingApp[80] pingTxSeq:count 303
attr interpolationmode none
attr title "ping tx seq, count"
scalar MeshLAN.host[0].pingApp[80] numOutOfOrderArrivals:last nan
attr interpolationmode none
attr title "ping out-of-order arrivals, last"
scalar MeshLAN.host[0].pingApp[80] numLost:last 182
attr interpolationmode none
attr title "pings lost, last"
scalar MeshLAN.host[0].pingApp[80] rtt:mean 0.0071227964447219
attr interpolationmode none
attr title "ping round-trip time, mean"
attr unit s
scalar MeshLAN.host[0].pingApp[81] "Pings sent" 398
scalar MeshLAN.host[0].pingApp[81] "ping loss rate (%)" 43.718592964824
scalar MeshLAN.host[0].pingApp[81] "ping out-of-order rate (%)" 0.25125628140704
scalar MeshLAN.host[0].pingApp[81] pingRxSeq:count 174
attr interpolationmode none
attr title "ping rx seq, count"
scalar MeshLAN.host[0].pingApp[81] pingTxSeq:count 305
attr interpolationmode none
attr title "ping tx seq, count"
scalar MeshLAN.host[0].pingApp[81] numOutOfOrderArrivals:last 1
attr interpolationmode none
attr title "ping out-of-order arrivals, last"
scalar MeshLAN.host[0].pingApp[81] numLost:last 174
attr interpolationmode none
attr title "pings lost, last"
scalar MeshLAN.host[0].pingApp[81] rtt:mean 0.0089287051512308
attr interpolationmode none
attr title "ping round-trip time, mean"
attr unit s
scalar MeshLAN.host[0].pingApp[82] "Pings sent" 380
scalar MeshLAN.host[0].pingApp[82] "ping loss rate (%)" 42.894736842105
scalar MeshLAN.host[0].pingApp[82] "ping out-of-order rate (%)" 0
scalar MeshLAN.host[0].pingApp[82] pingRxSeq:count 167
attr interpolationmode none
attr title "ping rx seq, count"
scalar MeshLAN.host[0].pingApp[82] pingTxSeq:count 288
attr interpolationmode none
attr title "ping tx seq, count"
scalar MeshLAN.host[0].pingApp[82] numOutOfOrderArrivals:last nan
attr interpolationmode none
attr title "ping out-of-order arrivals, last"
scalar MeshLAN.host[0].pingApp[82] numLost:last 163
attr interpolationmode none
attr title "pings lost, last"
scalar MeshLAN.host[0].pingApp[82] rtt:mean 0.0082321795878
attr interpolationmode none
attr title "ping round-trip time, mean"
attr unit s
scalar MeshLAN.host[0].pingApp[83] "Pings sent" 390
scalar MeshLAN.host[0].pingApp[83] "ping loss rate (%)" 44.615384615385
scalar MeshLAN.host[0].pingApp[83] "ping out-of-order rate (%)" 0.25641025641026
scalar MeshLAN.host[0].pingApp[83] pingRxSeq:count 167
attr interpolationmode none
attr title "ping rx seq, count"
scalar MeshLAN.host[0].pingApp[83] pingTxSeq:count 287
attr interpolationmode none
attr title "ping tx seq, count"
scalar MeshLAN.host[0].pingApp[83] numOutOfOrderArrivals:last 1
attr interpolationmode none
attr title "ping out-of-order arrivals, last"
scalar MeshLAN.host[0].pingApp[83] numLost:last 174
attr interpolationmode none
attr title "pings lost, last"
scalar MeshLAN.host[0].pingApp[83] rtt:mean 0.0077830412533704
attr interpolationmode none
attr title "ping round-trip time, mean"
attr unit s
scalar MeshLAN.host[0].pingApp[84] "Pings sent" 403
scalar MeshLAN.host[0].pingApp[84] "ping loss rate (%)" 44.168734491315
scalar MeshLAN.host[0].pingApp[84] "ping out-of-order rate (%)" 0
scalar MeshLAN.host[0].pingApp[84] pingRxSeq:count 176
attr interpolationmode none
attr title "ping rx seq, count"
scalar MeshLAN.host[0].pingApp[84] pingTxSeq:count 309
attr interpolationmode none
attr title "ping tx seq, count"
scalar MeshLAN.host[0].pingApp[84] numOutOfOrderArrivals:last nan
attr interpolationmode none
attr title "ping out-of-order arrivals, last"
scalar MeshLAN.host[0].pingApp[84] numLost:last 176
attr interpolationmode none
attr title "pings lost, last"
scalar MeshLAN.host[0].pingApp[84] rtt:mean 0.0076227486968902
attr interpolationmode none
attr title "ping round-trip time, mean"
attr unit s
scalar MeshLAN.host[0].pingApp[85] "Pings sent" 385
scalar MeshLAN.host[0].pingApp[85] "ping loss rate (%)" 38.441558441558
scalar MeshLAN.host[0].pingApp[85] "ping out-of-order rate (%)" 0.25974025974026
scalar MeshLAN.host[0].pingApp[85] pingRxSeq:count 183
attr interpolationmode none
attr title "ping rx seq, count"
scalar MeshLAN.host[0].pingApp[85] pingTxSeq:count 297
attr interpolationmode none
attr title "ping tx seq, count"
scalar MeshLAN.host[0].pingApp[85] numOutOfOrderArrivals:last 1
attr interpolationmode none
[...]
attr interpolationmode none
attr title "received packets, sum(packetBytes)"
scalar MeshLAN.router[9].eth[7].mac "simulated time" 20
scalar MeshLAN.router[9].eth[7].mac full-duplex 1
scalar MeshLAN.router[9].eth[7].mac "frames/sec sent" 376.65
scalar MeshLAN.router[9].eth[7].mac "frames/sec rcvd" 378.7
scalar MeshLAN.router[9].eth[7].mac "bits/sec sent" 1725524.8
scalar MeshLAN.router[9].eth[7].mac "bits/sec rcvd" 1740325.6
scalar MeshLAN.router[9].eth[7].mac "rx channel idle (%)" 82.354376
scalar MeshLAN.router[9].eth[7].mac "rx channel utilization (%)" 17.645624
scalar MeshLAN.router[9].eth[7].mac rxPkFromHL:count 5698
attr interpolationmode none
attr source rxPkFromHL
attr title "packet bytes from higher layer, count"
scalar MeshLAN.router[9].eth[7].mac rxPkFromHL:sum(packetBytes) 3258208
attr interpolationmode none
attr source rxPkFromHL
attr title "packet bytes from higher layer, sum(packetBytes)"
scalar MeshLAN.router[9].eth[7].mac rxPausePkUnits:count 0
attr interpolationmode none
attr title "pause units received, count"
scalar MeshLAN.router[9].eth[7].mac rxPausePkUnits:sum 0
attr interpolationmode none
attr title "pause units received, sum"
scalar MeshLAN.router[9].eth[7].mac txPausePkUnits:count 0
attr interpolationmode none
attr title "pause units sent, count"
scalar MeshLAN.router[9].eth[7].mac txPausePkUnits:sum 0
attr interpolationmode none
attr title "pause units sent, sum"
scalar MeshLAN.router[9].eth[7].mac txPk:count 5699
attr interpolationmode none
attr source txPk
attr title "packets transmitted, count"
scalar MeshLAN.router[9].eth[7].mac txPk:sum(packetBytes) 3259063
attr interpolationmode none
attr source txPk
attr title "packets transmitted, sum(packetBytes)"
scalar MeshLAN.router[9].eth[7].mac droppedPkNotForUs:count 0
attr interpolationmode none
attr source dropPkNotForUs
attr title "packets dropped/not for us, count"
scalar MeshLAN.router[9].eth[7].mac droppedPkNotForUs:sum(packetBytes) 0
attr interpolationmode none
attr source dropPkNotForUs
attr title "packets dropped/not for us, sum(packetBytes)"
scalar MeshLAN.router[9].eth[7].mac droppedPkBitError:count 0
attr interpolationmode none
attr source dropPkBitError
attr title "packets dropped/bit error, count"
scalar MeshLAN.router[9].eth[7].mac droppedPkBitError:sum(packetBytes) 0
attr interpolationmode none
attr source dropPkBitError
attr title "packets dropped/bit error, sum(packetBytes)"
scalar MeshLAN.router[9].eth[7].mac droppedPkIfaceDown:count 0
attr interpolationmode none
attr source dropPkIfaceDown
attr title "packets dropped/interface down, count"
scalar MeshLAN.router[9].eth[7].mac droppedPkIfaceDown:sum(packetBytes) 0
attr interpolationmode none
attr source dropPkIfaceDown
attr title "packets dropped/interface down, sum(packetBytes)"
scalar MeshLAN.router[9].eth[7].mac rxPkOk:count 5724
attr interpolationmode none
attr source rxPkOk
attr title "packets received OK, count"
scalar MeshLAN.router[9].eth[7].mac rxPkOk:sum(packetBytes) 3281195
attr interpolationmode none
attr source rxPkOk
attr title "packets received OK, sum(packetBytes)"
scalar MeshLAN.router[9].eth[7].mac passedUpPk:count 5724
attr interpolationmode none
attr source packetSentToUpper
attr title "packets passed to higher layer, count"
scalar MeshLAN.router[9].eth[7].mac passedUpPk:sum(packetBytes) 3281195
attr interpolationmode none
attr source packetSentToUpper
attr title "packets passed to higher layer, sum(packetBytes)"
scalar MeshLAN.router[9].eth[7].encap pauseSent:count 0
attr title "pause sent, count"
scalar MeshLAN.router[9].eth[7].encap pauseSent:sum 0
attr title "pause sent, sum"
scalar MeshLAN.router[9].eth[7].encap decapPk:count 5724
attr interpolationmode none
attr source decapPk
attr title "packets decapsulated, count"
scalar MeshLAN.router[9].eth[7].encap decapPk:sum(packetBytes) 3178016
attr interpolationmode none
attr source decapPk
attr title "packets decapsulated, sum(packetBytes)"
scalar MeshLAN.router[9].eth[7].encap encapPk:count 5698
attr interpolationmode none
attr source encapPk
attr title "packets encapsulated, count"
scalar MeshLAN.router[9].eth[7].encap encapPk:sum(packetBytes) 3155497
attr interpolationmode none
attr source encapPk
attr title "packets encapsulated, sum(packetBytes)"
scalar MeshLAN.router[9].eth[8].queue.pauseQueue queueLength:max nan
attr interpolationmode sample-hold
attr title "queue length, max"
scalar MeshLAN.router[9].eth[8].queue.pauseQueue queueLength:timeavg nan
attr interpolationmode sample-hold
attr title "queue length, timeavg"
statistic MeshLAN.router[9].eth[8].queue.pauseQueue queueingTime:histogram
field count 0
field mean nan
field stddev nan
field min nan
field max nan
field sum 0
field sqrsum 0
attr interpolationmode none
attr title "queueing time, histogram"
bin	-inf	0
bin	-0.5	0
bin	-0.46666666666667	0
bin	-0.43333333333333	0
bin	-0.4	0
bin	-0.36666666666667	0
bin	-0.33333333333333	0
bin	-0.3	0
bin	-0.26666666666667	0
bin	-0.23333333333333	0
bin	-0.2	0
bin	-0.16666666666667	0
bin	-0.13333333333333	0
bin	-0.1	0
bin	-0.066666666666667	0
bin	-0.033333333333333	0
bin	0	0
bin	0.033333333333333	0
bin	0.066666666666667	0
bin	0.1	0
bin	0.13333333333333	0
bin	0.16666666666667	0
bin	0.2	0
bin	0.23333333333333	0
bin	0.26666666666667	0
bin	0.3	0
bin	0.33333333333333	0
bin	0.36666666666667	0
bin	0.4	0
bin	0.43333333333333	0
bin	0.46666666666667	0
bin	0.5	0
scalar MeshLAN.router[9].eth[8].queue.pauseQueue dropPk:count 0
attr interpolationmode none
attr source dropPkByQueue
attr title "dropped packets, count"
scalar MeshLAN.router[9].eth[8].queue.pauseQueue dropPk:sum(packetBytes) 0
attr interpolationmode none
attr source dropPkByQueue
attr title "dropped packets, sum(packetBytes)"
scalar MeshLAN.router[9].eth[8].queue.pauseQueue rcvdPk:count 0
attr interpolationmode none
attr title "received packets, count"
scalar MeshLAN.router[9].eth[8].queue.pauseQueue rcvdPk:sum(packetBytes) 0
attr interpolationmode none
attr title "received packets, sum(packetBytes)"
scalar MeshLAN.router[9].eth[8].queue.dataQueue queueLength:max 3
attr interpolationmode sample-hold
attr title "queue length, max"
scalar MeshLAN.router[9].eth[8].queue.dataQueue queueLength:timeavg 0.018835772889442
attr interpolationmode sample-hold
attr title "queue length, timeavg"
statistic MeshLAN.router[9].eth[8].queue.dataQueue queueingTime:histogram
field count 5852
field mean 4.8277624500171e-005
field stddev 0.00014673977323615
field min 0
field max 0.0015114
field sum 0.282520658575
field sqrsum 0.00013962644096824
attr interpolationmode none
attr title "queueing time, histogram"
bin	-inf	0
bin	-0.0003761171715	0
bin	-0.0003259682153	0
bin	-0.0002758192591	0
bin	-0.0002256703029	0
bin	-0.0001755213467	0
bin	-0.0001253723905	0
bin	-7.52234343e-005	0
bin	-2.50744781e-005	4989
bin	2.50744781e-005	88
bin	7.52234343e-005	97
bin	0.0001253723905	92
bin	0.0001755213467	84
bin	0.0002256703029	80
bin	0.0002758192591	61
bin	0.0003259682153	65
bin	0.0003761171715	40
bin	0.0004262661277	50
bin	0.0004764150839	44
bin	0.0005265640401	34
bin	0.0005767129963	20
bin	0.0006268619525	27
bin	0.0006770109087	15
bin	0.0007271598649	15
bin	0.0007773088211	13
bin	0.0008274577773	24
bin	0.0008776067335	4
bin	0.0009277556897	1
bin	0.0009779046459	1
bin	0.0010280536021	2
bin	0.0010782025583	2
bin	0.0011283515145	4
scalar MeshLAN.router[9].eth[8].queue.dataQueue dropPk:count 0
attr interpolationmode none
attr source dropPkByQueue
attr title "dropped packets, count"
scalar MeshLAN.router[9].eth[8].queue.dataQueue dropPk:sum(packetBytes) 0
attr interpolationmode none
attr source dropPkByQueue
attr title "dropped packets, sum(packetBytes)"
scalar MeshLAN.router[9].eth[8].queue.dataQueue rcvdPk:count 5852
attr interpolationmode none
attr title "received packets, count"
scalar MeshLAN.router[9].eth[8].queue.dataQueue rcvdPk:sum(packetBytes) 3392797
attr interpolationmode none
attr title "received packets, sum(packetBytes)"
scalar MeshLAN.router[9].eth[8].mac "simulated time" 20
scalar MeshLAN.router[9].eth[8].mac full-duplex 1
scalar MeshLAN.router[9].eth[8].mac "frames/sec sent" 384.4
scalar MeshLAN.router[9].eth[8].mac "frames/sec rcvd" 382.25
scalar MeshLAN.router[9].eth[8].mac "bits/sec sent" 1781071.2
scalar MeshLAN.router[9].eth[8].mac "bits/sec rcvd" 1756706.8
scalar MeshLAN.router[9].eth[8].mac "rx channel idle (%)" 82.188292
scalar MeshLAN.router[9].eth[8].mac "rx channel utilization (%)" 17.811708
scalar MeshLAN.router[9].eth[8].mac rxPkFromHL:count 5852
attr interpolationmode none
attr source rxPkFromHL
attr title "packet bytes from higher layer, count"
scalar MeshLAN.router[9].eth[8].mac rxPkFromHL:sum(packetBytes) 3392797
attr interpolationmode none
attr source rxPkFromHL
attr title "packet bytes from higher layer, sum(packetBytes)"
scalar MeshLAN.router[9].eth[8].mac rxPausePkUnits:count 0
attr interpolationmode none
attr title "pause units received, count"
scalar MeshLAN.router[9].eth[8].mac rxPausePkUnits:sum 0
attr interpolationmode none
attr title "pause units received, sum"
scalar MeshLAN.router[9].eth[8].mac txPausePkUnits:count 0
attr interpolationmode none
attr title "pause units sent, count"
scalar MeshLAN.router[9].eth[8].mac txPausePkUnits:sum 0
attr interpolationmode none
attr title "pause units sent, sum"
scalar MeshLAN.router[9].eth[8].mac txPk:count 5852
attr interpolationmode none
attr source txPk
attr title "packets transmitted, count"
scalar MeshLAN.router[9].eth[8].mac txPk:sum(packetBytes) 3392797
attr interpolationmode none
attr source txPk
attr title "packets transmitted, sum(packetBytes)"
scalar MeshLAN.router[9].eth[8].mac droppedPkNotForUs:count 0
attr interpolationmode none
attr source dropPkNotForUs
attr title "packets dropped/not for us, count"
scalar MeshLAN.router[9].eth[8].mac droppedPkNotForUs:sum(packetBytes) 0
attr interpolationmode none
attr source dropPkNotForUs
attr title "packets dropped/not for us, sum(packetBytes)"
scalar MeshLAN.router[9].eth[8].mac droppedPkBitError:count 0
attr interpolationmode none
attr source dropPkBitError
attr title "packets dropped/bit error, count"
scalar MeshLAN.router[9].eth[8].mac droppedPkBitError:sum(packetBytes) 0
attr interpolationmode none
attr source dropPkBitError
attr title "packets dropped/bit error, sum(packetBytes)"
scalar MeshLAN.router[9].eth[8].mac droppedPkIfaceDown:count 0
attr interpolationmode none
attr source dropPkIfaceDown
attr title "packets dropped/interface down, count"
scalar MeshLAN.router[9].eth[8].mac droppedPkIfaceDown:sum(packetBytes) 0
attr interpolationmode none
attr source dropPkIfaceDown
attr title "packets dropped/interface down, sum(packetBytes)"
scalar MeshLAN.router[9].eth[8].mac rxPkOk:count 5820
attr interpolationmode none
attr source rxPkOk
attr title "packets received OK, count"
scalar MeshLAN.router[9].eth[8].mac rxPkOk:sum(packetBytes) 3348904
attr interpolationmode none
attr source rxPkOk
attr title "packets received OK, sum(packetBytes)"
scalar MeshLAN.router[9].eth[8].mac passedUpPk:count 5820
attr interpolationmode none
attr source packetSentToUpper
attr title "packets passed to higher layer, count"
scalar MeshLAN.router[9].eth[8].mac passedUpPk:sum(packetBytes) 3348904
attr interpolationmode none
attr source packetSentToUpper
attr title "packets passed to higher layer, sum(packetBytes)"
scalar MeshLAN.router[9].eth[8].encap pauseSent:count 0
attr title "pause sent, count"
scalar MeshLAN.router[9].eth[8].encap pauseSent:sum 0
attr title "pause sent, sum"
scalar MeshLAN.router[9].eth[8].encap decapPk:count 5820
attr interpolationmode none
attr source decapPk
attr title "packets decapsulated, count"
scalar MeshLAN.router[9].eth[8].encap decapPk:sum(packetBytes) 3243870
attr interpolationmode none
attr source decapPk
attr title "packets decapsulated, sum(packetBytes)"
scalar MeshLAN.router[9].eth[8].encap encapPk:count 5852
attr interpolationmode none
attr source encapPk
attr title "packets encapsulated, count"
scalar MeshLAN.router[9].eth[8].encap encapPk:sum(packetBytes) 3287200
attr interpolationmode none
attr source encapPk
attr title "packets encapsulated, sum(packetBytes)"
scalar MeshLAN.router[9].eth[9].queue.pauseQueue queueLength:max nan
attr interpolationmode sample-hold
attr title "queue length, max"
scalar MeshLAN.router[9].eth[9].queue.pauseQueue queueLength:timeavg nan
attr interpolationmode sample-hold
attr title "queue length, timeavg"
statistic MeshLAN.router[9].eth[9].queue.pauseQueue queueingTime:histogram
field count 0
field mean nan
field stddev nan
field min nan
field max nan
field sum 0
field sqrsum 0
attr interpolationmode none
attr title "queueing time, histogram"
bin	-inf	0
bin	-0.5	0
bin	-0.46666666666667	0
bin	-0.43333333333333	0
bin	-0.4	0
bin	-0.36666666666667	0
bin	-0.33333333333333	0
bin	-0.3	0
bin	-0.26666666666667	0
bin	-0.23333333333333	0
bin	-0.2	0
bin	-0.16666666666667	0
bin	-0.13333333333333	0
bin	-0.1	0
bin	-0.066666666666667	0
bin	-0.033333333333333	0
bin	0	0
bin	0.033333333333333	0
bin	0.066666666666667	0
bin	0.1	0
bin	0.13333333333333	0
bin	0.16666666666667	0
bin	0.2	0
bin	0.23333333333333	0
bin	0.26666666666667	0
bin	0.3	0
bin	0.33333333333333	0
bin	0.36666666666667	0
bin	0.4	0
bin	0.43333333333333	0
bin	0.46666666666667	0
bin	0.5	0
scalar MeshLAN.router[9].eth[9].queue.pauseQueue dropPk:count 0
attr interpolationmode none
attr source dropPkByQueue
attr title "dropped packets, count"
scalar MeshLAN.router[9].eth[9].queue.pauseQueue dropPk:sum(packetBytes) 0
attr interpolationmode none
attr source dropPkByQueue
attr title "dropped packets, sum(packetBytes)"
scalar MeshLAN.router[9].eth[9].queue.pauseQueue rcvdPk:count 0
attr interpolationmode none
attr title "received packets, count"
scalar MeshLAN.router[9].eth[9].queue.pauseQueue rcvdPk:sum(packetBytes) 0
attr interpolationmode none
attr title "received packets, sum(packetBytes)"
scalar MeshLAN.router[9].eth[9].queue.dataQueue queueLength:max 3
attr interpolationmode sample-hold
attr title "queue length, max"
scalar MeshLAN.router[9].eth[9].queue.dataQueue queueLength:timeavg 0.019629539971106
attr interpolationmode sample-hold
attr title "queue length, timeavg"
statistic MeshLAN.router[9].eth[9].queue.dataQueue queueingTime:histogram
field count 5728
field mean 5.1371234844623e-005
field stddev 0.00014713396427357
field min 0
field max 0.0010872
field sum 0.29425443319
field sqrsum 0.00013909662010872
attr interpolationmode none
attr title "queueing time, histogram"
bin	-inf	0
bin	-0.0004232	0
bin	-0.00036677333333333	0
bin	-0.00031034666666667	0
bin	-0.00025392	0
bin	-0.00019749333333333	0
bin	-0.00014106666666667	0
bin	-8.464e-005	0
bin	-2.8213333333333e-005	4808
bin	2.8213333333333e-005	121
bin	8.464e-005	100
bin	0.00014106666666667	105
bin	0.00019749333333333	117
bin	0.00025392	86
bin	0.00031034666666667	79
bin	0.00036677333333333	50
bin	0.0004232	63
bin	0.00047962666666667	51
bin	0.00053605333333333	26
bin	0.00059248	28
bin	0.00064890666666667	19
bin	0.00070533333333333	23
bin	0.00076176	15
bin	0.00081818666666667	26
bin	0.00087461333333333	2
bin	0.00093104	3
bin	0.00098746666666667	3
bin	0.0010438933333333	3
bin	0.00110032	0
bin	0.0011567466666667	0
bin	0.0012131733333333	0
bin	0.0012696	0
scalar MeshLAN.router[9].eth[9].queue.dataQueue dropPk:count 0
attr interpolationmode none
attr source dropPkByQueue
attr title "dropped packets, count"
scalar MeshLAN.router[9].eth[9].queue.dataQueue dropPk:sum(packetBytes) 0
attr interpolationmode none
attr source dropPkByQueue
attr title "dropped packets, sum(packetBytes)"
scalar MeshLAN.router[9].eth[9].queue.dataQueue rcvdPk:count 5728
attr interpolationmode none
attr title "received packets, count"
scalar MeshLAN.router[9].eth[9].queue.dataQueue rcvdPk:sum(packetBytes) 3383899
attr interpolationmode none
attr title "received packets, sum(packetBytes)"
scalar MeshLAN.router[9].eth[9].mac "simulated time" 20
scalar MeshLAN.router[9].eth[9].mac full-duplex 1
scalar MeshLAN.router[9].eth[9].mac "frames/sec sent" 377.95
scalar MeshLAN.router[9].eth[9].mac "frames/sec rcvd" 375.95
scalar MeshLAN.router[9].eth[9].mac "bits/sec sent" 1784512.4
scalar MeshLAN.router[9].eth[9].mac "bits/sec rcvd" 1767844.4
scalar MeshLAN.router[9].eth[9].mac "rx channel idle (%)" 82.080948
scalar MeshLAN.router[9].eth[9].mac "rx channel utilization (%)" 17.919052
scalar MeshLAN.router[9].eth[9].mac rxPkFromHL:count 5728
attr interpolationmode none
attr source rxPkFromHL
attr title "packet bytes from higher layer, count"
scalar MeshLAN.router[9].eth[9].mac rxPkFromHL:sum(packetBytes) 3383899
attr interpolationmode none
attr source rxPkFromHL
attr title "packet bytes from higher layer, sum(packetBytes)"
scalar MeshLAN.router[9].eth[9].mac rxPausePkUnits:count 0
attr interpolationmode none
attr title "pause units received, count"
scalar MeshLAN.router[9].eth[9].mac rxPausePkUnits:sum 0
attr interpolationmode none
attr title "pause units received, sum"
scalar MeshLAN.router[9].eth[9].mac txPausePkUnits:count 0
attr interpolationmode none
attr title "pause units sent, count"
scalar MeshLAN.router[9].eth[9].mac txPausePkUnits:sum 0
attr interpolationmode none
attr title "pause units sent, sum"
scalar MeshLAN.router[9].eth[9].mac txPk:count 5728
attr interpolationmode none
attr source txPk
attr title "packets transmitted, count"
scalar MeshLAN.router[9].eth[9].mac txPk:sum(packetBytes) 3383899
attr interpolationmode none
attr source txPk
attr title "packets transmitted, sum(packetBytes)"
scalar MeshLAN.router[9].eth[9].mac droppedPkNotForUs:count 0
attr interpolationmode none
attr source dropPkNotForUs
attr title "packets dropped/not for us, count"
scalar MeshLAN.router[9].eth[9].mac droppedPkNotForUs:sum(packetBytes) 0
attr interpolationmode none
attr source dropPkNotForUs
attr title "packets dropped/not for us, sum(packetBytes)"
scalar MeshLAN.router[9].eth[9].mac droppedPkBitError:count 0
attr interpolationmode none
attr source dropPkBitError
attr title "packets dropped/bit error, count"
scalar MeshLAN.router[9].eth[9].mac droppedPkBitError:sum(packetBytes) 0
attr interpolationmode none
attr source dropPkBitError
attr title "packets dropped/bit error, sum(packetBytes)"
scalar MeshLAN.router[9].eth[9].mac droppedPkIfaceDown:count 0
attr interpolationmode none
attr source dropPkIfaceDown
attr title "packets dropped/interface down, count"
scalar MeshLAN.router[9].eth[9].mac droppedPkIfaceDown:sum(packetBytes) 0
attr interpolationmode none
attr source dropPkIfaceDown
attr title "packets dropped/interface down, sum(packetBytes)"
scalar MeshLAN.router[9].eth[9].mac rxPkOk:count 5702
attr interpolationmode none
attr source rxPkOk
attr title "packets received OK, count"
scalar MeshLAN.router[9].eth[9].mac rxPkOk:sum(packetBytes) 3355835
attr interpolationmode none
attr source rxPkOk
attr title "packets received OK, sum(packetBytes)"
scalar MeshLAN.router[9].eth[9].mac passedUpPk:count 5702
attr interpolationmode none
attr source packetSentToUpper
attr title "packets passed to higher layer, count"
scalar MeshLAN.router[9].eth[9].mac passedUpPk:sum(packetBytes) 3355835
attr interpolationmode none
attr source packetSentToUpper
attr title "packets passed to higher layer, sum(packetBytes)"
scalar MeshLAN.router[9].eth[9].encap pauseSent:count 0
attr title "pause sent, count"
scalar MeshLAN.router[9].eth[9].encap pauseSent:sum 0
attr title "pause sent, sum"
scalar MeshLAN.router[9].eth[9].encap decapPk:count 5702
attr interpolationmode none
attr source decapPk
attr title "packets decapsulated, count"
scalar MeshLAN.router[9].eth[9].encap decapPk:sum(packetBytes) 3253052
attr interpolationmode none
attr source decapPk
attr title "packets decapsulated, sum(packetBytes)"
scalar MeshLAN.router[9].eth[9].encap encapPk:count 5728
attr interpolationmode none
attr source encapPk
attr title "packets encapsulated, count"
scalar MeshLAN.router[9].eth[9].encap encapPk:sum(packetBytes) 3280612
attr interpolationmode none
attr source encapPk
attr title "packets encapsulated, sum(packetBytes)"

