version 2
run MeshLAN10-datarate-0-20180110-21:50:07-10760
attr configname MeshLAN10-datarate
attr datetime 20180110-21:50:07
attr experiment MeshLAN10-datarate
attr inifile MeshLAN.ini
attr iterationvars $pa=1
attr iterationvarsf pa=1-
attr measurement $pa=1
attr network MeshLAN
attr processid 10760
attr repetition 0
attr replication #0
attr resultdir results
attr runnumber 0
attr seedset 0
itervar pa 1
param *.numHosts 10
param **.datarate 100Mbps
param **.host[*].pingApp[*].sendInterval "truncnormal(50ms, 25ms)"
param **.host[*].pingApp[*].packetSize "truncnormal(1024B, 512B)"
param **.queueType "\"DropTailQueue\""
param **.frameCapacity 10
param **.mtu 1024B
param **.host[*].numPingApps 1
param **.host[*].pingApp[*].typename "\"PingApp\""
param **.host[*].pingApp[*].count 1
param **.host[*].pingApp[*].startTime "truncnormal(200ms, 100ms)"
param **.host[*].pingApp[*].destAddr "\"*\""

scalar MeshLAN.host[0].networkLayer.arp sentReply:count 0
attr title "ARP replies sent, count"
scalar MeshLAN.host[0].networkLayer.arp sentReq:count 0
attr title "ARP request sent, count"
scalar MeshLAN.host[0].networkLayer.arp failedARPResolution:count 0
attr title "ARP failed resolutions, count"
scalar MeshLAN.host[0].networkLayer.arp completedARPResolution:count 0
attr title "ARP completed resolutions, count"
scalar MeshLAN.host[0].networkLayer.arp initiatedARPResolution:count 0
attr title "ARP initiated resolutions, count"
scalar MeshLAN.host[0].lo0.lo droppedPkBitError:count 0
attr interpolationmode none
attr source dropPkBitError
attr title "packets dropped/bit error, count"
scalar MeshLAN.host[0].lo0.lo droppedPkBitError:sum(packetBytes) 0
attr interpolationmode none
attr source dropPkBitError
attr title "packets dropped/bit error, sum(packetBytes)"
scalar MeshLAN.host[0].lo0.lo rcvdPkFromHL:count 8
attr interpolationmode none
attr source packetReceivedFromUpper
attr title "packets received from higher layer, count"
scalar MeshLAN.host[0].lo0.lo rcvdPkFromHL:sum(packetBytes) 4096
attr interpolationmode none
attr source packetReceivedFromUpper
attr title "packets received from higher layer, sum(packetBytes)"
scalar MeshLAN.host[0].lo0.lo passedUpPk:count 8
attr interpolationmode none
attr source packetSentToUpper
attr title "packets passed to higher layer, count"
scalar MeshLAN.host[0].lo0.lo passedUpPk:sum(packetBytes) 4096
attr interpolationmode none
attr source packetSentToUpper
attr title "packets passed to higher layer, sum(packetBytes)"
scalar MeshLAN.host[0].eth[0].queue.pauseQueue queueLength:max nan
attr interpolationmode sample-hold
attr title "queue length, max"
scalar MeshLAN.host[0].eth[0].queue.pauseQueue queueLength:timeavg nan
attr interpolationmode sample-hold
attr title "queue length, timeavg"
statistic MeshLAN.host[0].eth[0].queue.pauseQueue queueingTime:histogram
field count 0
field mean nan
field stddev nan
field min nan
field max nan
field sum 0
field sqrsum 0
attr interpolationmode none
attr title "queueing time, histogram"
bin	-inf	0
bin	-0.5	0
bin	-0.46666666666667	0
bin	-0.43333333333333	0
bin	-0.4	0
bin	-0.36666666666667	0
bin	-0.33333333333333	0
bin	-0.3	0
bin	-0.26666666666667	0
bin	-0.23333333333333	0
bin	-0.2	0
bin	-0.16666666666667	0
bin	-0.13333333333333	0
bin	-0.1	0
bin	-0.066666666666667	0
bin	-0.033333333333333	0
bin	0	0
bin	0.033333333333333	0
bin	0.066666666666667	0
bin	0.1	0
bin	0.13333333333333	0
bin	0.16666666666667	0
bin	0.2	0
bin	0.23333333333333	0
bin	0.26666666666667	0
bin	0.3	0
bin	0.33333333333333	0
bin	0.36666666666667	0
bin	0.4	0
bin	0.43333333333333	0
bin	0.46666666666667	0
bin	0.5	0
scalar MeshLAN.host[0].eth[0].queue.pauseQueue dropPk:count 0
attr interpolationmode none
attr source dropPkByQueue
attr title "dropped packets, count"
scalar MeshLAN.host[0].eth[0].queue.pauseQueue dropPk:sum(packetBytes) 0
attr interpolationmode none
attr source dropPkByQueue
attr title "dropped packets, sum(packetBytes)"
scalar MeshLAN.host[0].eth[0].queue.pauseQueue rcvdPk:count 0
attr interpolationmode none
attr title "received packets, count"
scalar MeshLAN.host[0].eth[0].queue.pauseQueue rcvdPk:sum(packetBytes) 0
attr interpolationmode none
attr title "received packets, sum(packetBytes)"
scalar MeshLAN.host[0].eth[0].queue.dataQueue queueLength:max 1
attr interpolationmode sample-hold
attr title "queue length, max"
scalar MeshLAN.host[0].eth[0].queue.dataQueue queueLength:timeavg 2.8308525188614e-005
attr interpolationmode sample-hold
attr title "queue length, timeavg"
statistic MeshLAN.host[0].eth[0].queue.dataQueue queueingTime:histogram
field count 310
field mean 1.3651612903226e-006
field stddev 1.0679489421806e-005
field min 0
field max 8.464e-005
field sum 0.0004232
field sqrsum 3.5819648e-008
attr interpolationmode none
attr title "queueing time, histogram"
bin	-inf	0
bin	-0.5	0
bin	-0.46666666666667	0
bin	-0.43333333333333	0
bin	-0.4	0
bin	-0.36666666666667	0
bin	-0.33333333333333	0
bin	-0.3	0
bin	-0.26666666666667	0
bin	-0.23333333333333	0
bin	-0.2	0
bin	-0.16666666666667	0
bin	-0.13333333333333	0
bin	-0.1	0
bin	-0.066666666666667	0
bin	-0.033333333333333	0
bin	0	310
bin	0.033333333333333	0
bin	0.066666666666667	0
bin	0.1	0
bin	0.13333333333333	0
bin	0.16666666666667	0
bin	0.2	0
bin	0.23333333333333	0
bin	0.26666666666667	0
bin	0.3	0
bin	0.33333333333333	0
bin	0.36666666666667	0
bin	0.4	0
bin	0.43333333333333	0
bin	0.46666666666667	0
bin	0.5	0
scalar MeshLAN.host[0].eth[0].queue.dataQueue dropPk:count 0
attr interpolationmode none
attr source dropPkByQueue
attr title "dropped packets, count"
scalar MeshLAN.host[0].eth[0].queue.dataQueue dropPk:sum(packetBytes) 0
attr interpolationmode none
attr source dropPkByQueue
attr title "dropped packets, sum(packetBytes)"
scalar MeshLAN.host[0].eth[0].queue.dataQueue rcvdPk:count 310
attr interpolationmode none
attr title "received packets, count"
scalar MeshLAN.host[0].eth[0].queue.dataQueue rcvdPk:sum(packetBytes) 173447
attr interpolationmode none
attr title "received packets, sum(packetBytes)"
scalar MeshLAN.host[0].eth[0].mac "simulated time" 20
scalar MeshLAN.host[0].eth[0].mac full-duplex 1
scalar MeshLAN.host[0].eth[0].mac "frames/sec sent" 20.7
scalar MeshLAN.host[0].eth[0].mac "frames/sec rcvd" 20.7
scalar MeshLAN.host[0].eth[0].mac "bits/sec sent" 93564.4
scalar MeshLAN.host[0].eth[0].mac "bits/sec rcvd" 93564.4
scalar MeshLAN.host[0].eth[0].mac "rx channel idle (%)" 99.9051108
scalar MeshLAN.host[0].eth[0].mac "rx channel utilization (%)" 0.0948892
scalar MeshLAN.host[0].eth[0].mac rxPkFromHL:count 310
attr interpolationmode none
attr source rxPkFromHL
attr title "packet bytes from higher layer, count"
scalar MeshLAN.host[0].eth[0].mac rxPkFromHL:sum(packetBytes) 173447
attr interpolationmode none
attr source rxPkFromHL
attr title "packet bytes from higher layer, sum(packetBytes)"
scalar MeshLAN.host[0].eth[0].mac rxPausePkUnits:count 0
attr interpolationmode none
attr title "pause units received, count"
scalar MeshLAN.host[0].eth[0].mac rxPausePkUnits:sum 0
attr interpolationmode none
attr title "pause units received, sum"
scalar MeshLAN.host[0].eth[0].mac txPausePkUnits:count 0
attr interpolationmode none
attr title "pause units sent, count"
scalar MeshLAN.host[0].eth[0].mac txPausePkUnits:sum 0
attr interpolationmode none
attr title "pause units sent, sum"
scalar MeshLAN.host[0].eth[0].mac txPk:count 310
attr interpolationmode none
attr source txPk
attr title "packets transmitted, count"
scalar MeshLAN.host[0].eth[0].mac txPk:sum(packetBytes) 173447
attr interpolationmode none
attr source txPk
attr title "packets transmitted, sum(packetBytes)"
scalar MeshLAN.host[0].eth[0].mac droppedPkNotForUs:count 0
attr interpolationmode none
attr source dropPkNotForUs
attr title "packets dropped/not for us, count"
scalar MeshLAN.host[0].eth[0].mac droppedPkNotForUs:sum(packetBytes) 0
attr interpolationmode none
attr source dropPkNotForUs
attr title "packets dropped/not for us, sum(packetBytes)"
scalar MeshLAN.host[0].eth[0].mac droppedPkBitError:count 0
attr interpolationmode none
attr source dropPkBitError
attr title "packets dropped/bit error, count"
scalar MeshLAN.host[0].eth[0].mac droppedPkBitError:sum(packetBytes) 0
attr interpolationmode none
attr source dropPkBitError
attr title "packets dropped/bit error, sum(packetBytes)"
scalar MeshLAN.host[0].eth[0].mac droppedPkIfaceDown:count 0
attr interpolationmode none
attr source dropPkIfaceDown
attr title "packets dropped/interface down, count"
scalar MeshLAN.host[0].eth[0].mac droppedPkIfaceDown:sum(packetBytes) 0
attr interpolationmode none
attr source dropPkIfaceDown
attr title "packets dropped/interface down, sum(packetBytes)"
scalar MeshLAN.host[0].eth[0].mac rxPkOk:count 310
attr interpolationmode none
attr source rxPkOk
attr title "packets received OK, count"
scalar MeshLAN.host[0].eth[0].mac rxPkOk:sum(packetBytes) 173447
attr interpolationmode none
attr source rxPkOk
attr title "packets received OK, sum(packetBytes)"
scalar MeshLAN.host[0].eth[0].mac passedUpPk:count 310
attr interpolationmode none
attr source packetSentToUpper
attr title "packets passed to higher layer, count"
scalar MeshLAN.host[0].eth[0].mac passedUpPk:sum(packetBytes) 173447
attr interpolationmode none
attr source packetSentToUpper
attr title "packets passed to higher layer, sum(packetBytes)"
scalar MeshLAN.host[0].eth[0].encap pauseSent:count 0
attr title "pause sent, count"
scalar MeshLAN.host[0].eth[0].encap pauseSent:sum 0
attr title "pause sent, sum"
scalar MeshLAN.host[0].eth[0].encap decapPk:count 310
attr interpolationmode none
attr source decapPk
attr title "packets decapsulated, count"
scalar MeshLAN.host[0].eth[0].encap decapPk:sum(packetBytes) 167867
attr interpolationmode none
attr source decapPk
attr title "packets decapsulated, sum(packetBytes)"
scalar MeshLAN.host[0].eth[0].encap encapPk:count 310
attr interpolationmode none
attr source encapPk
attr title "packets encapsulated, count"
scalar MeshLAN.host[0].eth[0].encap encapPk:sum(packetBytes) 167867
attr interpolationmode none
attr source encapPk
attr title "packets encapsulated, sum(packetBytes)"
scalar MeshLAN.host[0].pingApp[0] "Pings sent" 371
scalar MeshLAN.host[0].pingApp[0] "ping loss rate (%)" 0
scalar MeshLAN.host[0].pingApp[0] "ping out-of-order rate (%)" 0
scalar MeshLAN.host[0].pingApp[0] pingRxSeq:count 285
attr interpolationmode none
attr title "ping rx seq, count"
scalar MeshLAN.host[0].pingApp[0] pingTxSeq:count 285
attr interpolationmode none
attr title "ping tx seq, count"
scalar MeshLAN.host[0].pingApp[0] numOutOfOrderArrivals:last nan
attr interpolationmode none
attr title "ping out-of-order arrivals, last"
scalar MeshLAN.host[0].pingApp[0] numLost:last nan
attr interpolationmode none
attr title "pings lost, last"
scalar MeshLAN.host[0].pingApp[0] rtt:mean 0.00017563046263345
attr interpolationmode none
attr title "ping round-trip time, mean"
attr unit s
scalar MeshLAN.host[1].networkLayer.arp sentReply:count 0
attr title "ARP replies sent, count"
scalar MeshLAN.host[1].networkLayer.arp sentReq:count 0
attr title "ARP request sent, count"
scalar MeshLAN.host[1].networkLayer.arp failedARPResolution:count 0
attr title "ARP failed resolutions, count"
scalar MeshLAN.host[1].networkLayer.arp completedARPResolution:count 0
attr title "ARP completed resolutions, count"
scalar MeshLAN.host[1].networkLayer.arp initiatedARPResolution:count 0
attr title "ARP initiated resolutions, count"
scalar MeshLAN.host[1].lo0.lo droppedPkBitError:count 0
attr interpolationmode none
attr source dropPkBitError
attr title "packets dropped/bit error, count"
scalar MeshLAN.host[1].lo0.lo droppedPkBitError:sum(packetBytes) 0
attr interpolationmode none
attr source dropPkBitError
attr title "packets dropped/bit error, sum(packetBytes)"
scalar MeshLAN.host[1].lo0.lo rcvdPkFromHL:count 0
attr interpolationmode none
attr source packetReceivedFromUpper
attr title "packets received from higher layer, count"
scalar MeshLAN.host[1].lo0.lo rcvdPkFromHL:sum(packetBytes) 0
attr interpolationmode none
attr source packetReceivedFromUpper
attr title "packets received from higher layer, sum(packetBytes)"
scalar MeshLAN.host[1].lo0.lo passedUpPk:count 0
attr interpolationmode none
attr source packetSentToUpper
attr title "packets passed to higher layer, count"
scalar MeshLAN.host[1].lo0.lo passedUpPk:sum(packetBytes) 0
attr interpolationmode none
attr source packetSentToUpper
attr title "packets passed to higher layer, sum(packetBytes)"
scalar MeshLAN.host[1].eth[0].queue.pauseQueue queueLength:max nan
attr interpolationmode sample-hold
attr title "queue length, max"
scalar MeshLAN.host[1].eth[0].queue.pauseQueue queueLength:timeavg nan
attr interpolationmode sample-hold
attr title "queue length, timeavg"
statistic MeshLAN.host[1].eth[0].queue.pauseQueue queueingTime:histogram
field count 0
field mean nan
field stddev nan
field min nan
field max nan
field sum 0
field sqrsum 0
attr interpolationmode none
attr title "queueing time, histogram"
bin	-inf	0
bin	-0.5	0
bin	-0.46666666666667	0
bin	-0.43333333333333	0
bin	-0.4	0
bin	-0.36666666666667	0
bin	-0.33333333333333	0
bin	-0.3	0
bin	-0.26666666666667	0
bin	-0.23333333333333	0
bin	-0.2	0
bin	-0.16666666666667	0
bin	-0.13333333333333	0
bin	-0.1	0
bin	-0.066666666666667	0
bin	-0.033333333333333	0
bin	0	0
bin	0.033333333333333	0
bin	0.066666666666667	0
bin	0.1	0
bin	0.13333333333333	0
bin	0.16666666666667	0
bin	0.2	0
bin	0.23333333333333	0
bin	0.26666666666667	0
bin	0.3	0
bin	0.33333333333333	0
bin	0.36666666666667	0
bin	0.4	0
bin	0.43333333333333	0
bin	0.46666666666667	0
bin	0.5	0
scalar MeshLAN.host[1].eth[0].queue.pauseQueue dropPk:count 0
attr interpolationmode none
attr source dropPkByQueue
attr title "dropped packets, count"
scalar MeshLAN.host[1].eth[0].queue.pauseQueue dropPk:sum(packetBytes) 0
attr interpolationmode none
attr source dropPkByQueue
attr title "dropped packets, sum(packetBytes)"
scalar MeshLAN.host[1].eth[0].queue.pauseQueue rcvdPk:count 0
attr interpolationmode none
attr title "received packets, count"
scalar MeshLAN.host[1].eth[0].queue.pauseQueue rcvdPk:sum(packetBytes) 0
attr interpolationmode none
attr title "received packets, sum(packetBytes)"
scalar MeshLAN.host[1].eth[0].queue.dataQueue queueLength:max 1
attr interpolationmode sample-hold
attr title "queue length, max"
scalar MeshLAN.host[1].eth[0].queue.dataQueue queueLength:timeavg 0.0016252887142119
attr interpolationmode sample-hold
attr title "queue length, timeavg"
statistic MeshLAN.host[1].eth[0].queue.dataQueue queueingTime:histogram
field count 594
field mean 4.1037575757576e-005
field stddev 4.2336216423939e-005
field min 0
field max 8.464e-005
field sum 0.02437632
field sqrsum 2.0632117248e-006
attr interpolationmode none
attr title "queueing time, histogram"
bin	-inf	0
bin	-4.232e-005	0
bin	-3.6677333333333e-005	0
bin	-3.1034666666667e-005	0
bin	-2.5392e-005	0
bin	-1.9749333333333e-005	0
bin	-1.4106666666667e-005	0
bin	-8.464e-006	0
bin	-2.8213333333333e-006	306
bin	2.8213333333333e-006	0
bin	8.464e-006	0
bin	1.4106666666667e-005	0
bin	1.9749333333333e-005	0
bin	2.5392e-005	0
bin	3.1034666666667e-005	0
bin	3.6677333333333e-005	0
bin	4.232e-005	0
bin	4.7962666666667e-005	0
bin	5.3605333333333e-005	0
bin	5.9248e-005	0
bin	6.4890666666667e-005	0
bin	7.0533333333333e-005	0
bin	7.6176e-005	0
bin	8.1818666666667e-005	288
bin	8.7461333333333e-005	0
bin	9.3104e-005	0
bin	9.8746666666667e-005	0
bin	0.00010438933333333	0
bin	0.000110032	0
bin	0.00011567466666667	0
bin	0.00012131733333333	0
bin	0.00012696	0
scalar MeshLAN.host[1].eth[0].queue.dataQueue dropPk:count 0
attr interpolationmode none
attr source dropPkByQueue
attr title "dropped packets, count"
scalar MeshLAN.host[1].eth[0].queue.dataQueue dropPk:sum(packetBytes) 0
attr interpolationmode none
attr source dropPkByQueue
attr title "dropped packets, sum(packetBytes)"
scalar MeshLAN.host[1].eth[0].queue.dataQueue rcvdPk:count 594
attr interpolationmode none
attr title "received packets, count"
scalar MeshLAN.host[1].eth[0].queue.dataQueue rcvdPk:sum(packetBytes) 459654
attr interpolationmode none
attr title "received packets, sum(packetBytes)"
scalar MeshLAN.host[1].eth[0].mac "simulated time" 20
scalar MeshLAN.host[1].eth[0].mac full-duplex 1
scalar MeshLAN.host[1].eth[0].mac "frames/sec sent" 38.75
scalar MeshLAN.host[1].eth[0].mac "frames/sec rcvd" 38.75
scalar MeshLAN.host[1].eth[0].mac "bits/sec sent" 239656.4
scalar MeshLAN.host[1].eth[0].mac "bits/sec rcvd" 239656.4
scalar MeshLAN.host[1].eth[0].mac "rx channel idle (%)" 99.7578636
scalar MeshLAN.host[1].eth[0].mac "rx channel utilization (%)" 0.2421364
scalar MeshLAN.host[1].eth[0].mac rxPkFromHL:count 594
attr interpolationmode none
attr source rxPkFromHL
attr title "packet bytes from higher layer, count"
scalar MeshLAN.host[1].eth[0].mac rxPkFromHL:sum(packetBytes) 459654
attr interpolationmode none
attr source rxPkFromHL
attr title "packet bytes from higher layer, sum(packetBytes)"
scalar MeshLAN.host[1].eth[0].mac rxPausePkUnits:count 0
attr interpolationmode none
attr title "pause units received, count"
scalar MeshLAN.host[1].eth[0].mac rxPausePkUnits:sum 0
attr interpolationmode none
attr title "pause units received, sum"
scalar MeshLAN.host[1].eth[0].mac txPausePkUnits:count 0
attr interpolationmode none
attr title "pause units sent, count"
scalar MeshLAN.host[1].eth[0].mac txPausePkUnits:sum 0
attr interpolationmode none
attr title "pause units sent, sum"
scalar MeshLAN.host[1].eth[0].mac txPk:count 594
attr interpolationmode none
attr source txPk
attr title "packets transmitted, count"
scalar MeshLAN.host[1].eth[0].mac txPk:sum(packetBytes) 459654
attr interpolationmode none
attr source txPk
attr title "packets transmitted, sum(packetBytes)"
scalar MeshLAN.host[1].eth[0].mac droppedPkNotForUs:count 0
attr interpolationmode none
attr source dropPkNotForUs
attr title "packets dropped/not for us, count"
scalar MeshLAN.host[1].eth[0].mac droppedPkNotForUs:sum(packetBytes) 0
attr interpolationmode none
attr source dropPkNotForUs
attr title "packets dropped/not for us, sum(packetBytes)"
scalar MeshLAN.host[1].eth[0].mac droppedPkBitError:count 0
attr interpolationmode none
attr source dropPkBitError
attr title "packets dropped/bit error, count"
scalar MeshLAN.host[1].eth[0].mac droppedPkBitError:sum(packetBytes) 0
attr interpolationmode none
attr source dropPkBitError
attr title "packets dropped/bit error, sum(packetBytes)"
scalar MeshLAN.host[1].eth[0].mac droppedPkIfaceDown:count 0
attr interpolationmode none
attr source dropPkIfaceDown
attr title "packets dropped/interface down, count"
scalar MeshLAN.host[1].eth[0].mac droppedPkIfaceDown:sum(packetBytes) 0
attr interpolationmode none
attr source dropPkIfaceDown
attr title "packets dropped/interface down, sum(packetBytes)"
scalar MeshLAN.host[1].eth[0].mac rxPkOk:count 594
attr interpolationmode none
attr source rxPkOk
attr title "packets received OK, count"
scalar MeshLAN.host[1].eth[0].mac rxPkOk:sum(packetBytes) 459654
attr interpolationmode none
attr source rxPkOk
attr title "packets received OK, sum(packetBytes)"
scalar MeshLAN.host[1].eth[0].mac passedUpPk:count 594
attr interpolationmode none
attr source packetSentToUpper
attr title "packets passed to higher layer, count"
scalar MeshLAN.host[1].eth[0].mac passedUpPk:sum(packetBytes) 459654
attr interpolationmode none
attr source packetSentToUpper
attr title "packets passed to higher layer, sum(packetBytes)"
scalar MeshLAN.host[1].eth[0].encap pauseSent:count 0
attr title "pause sent, count"
scalar MeshLAN.host[1].eth[0].encap pauseSent:sum 0
attr title "pause sent, sum"
scalar MeshLAN.host[1].eth[0].encap decapPk:count 594
attr interpolationmode none
attr source decapPk
attr title "packets decapsulated, count"
scalar MeshLAN.host[1].eth[0].encap decapPk:sum(packetBytes) 448962
attr interpolationmode none
attr source decapPk
attr title "packets decapsulated, sum(packetBytes)"
scalar MeshLAN.host[1].eth[0].encap encapPk:count 594
attr interpolationmode none
attr source encapPk
attr title "packets encapsulated, count"
scalar MeshLAN.host[1].eth[0].encap encapPk:sum(packetBytes) 448962
attr interpolationmode none
attr source encapPk
attr title "packets encapsulated, sum(packetBytes)"
scalar MeshLAN.host[1].pingApp[0] "Pings sent" 374
scalar MeshLAN.host[1].pingApp[0] "ping loss rate (%)" 0
scalar MeshLAN.host[1].pingApp[0] "ping out-of-order rate (%)" 0
scalar MeshLAN.host[1].pingApp[0] pingRxSeq:count 285
attr interpolationmode none
attr title "ping rx seq, count"
scalar MeshLAN.host[1].pingApp[0] pingTxSeq:count 285
attr interpolationmode none
attr title "ping tx seq, count"
scalar MeshLAN.host[1].pingApp[0] numOutOfOrderArrivals:last nan
attr interpolationmode none
attr title "ping out-of-order arrivals, last"
scalar MeshLAN.host[1].pingApp[0] numLost:last nan
attr interpolationmode none
attr title "pings lost, last"
scalar MeshLAN.host[1].pingApp[0] rtt:mean 0.00041575242105263
attr interpolationmode none
attr title "ping round-trip time, mean"
attr unit s
scalar MeshLAN.host[2].networkLayer.arp sentReply:count 0
attr title "ARP replies sent, count"
scalar MeshLAN.host[2].networkLayer.arp sentReq:count 0
attr title "ARP request sent, count"
scalar MeshLAN.host[2].networkLayer.arp failedARPResolution:count 0
attr title "ARP failed resolutions, count"
scalar MeshLAN.host[2].networkLayer.arp completedARPResolution:count 0
attr title "ARP completed resolutions, count"
scalar MeshLAN.host[2].networkLayer.arp initiatedARPResolution:count 0
attr title "ARP initiated resolutions, count"
scalar MeshLAN.host[2].lo0.lo droppedPkBitError:count 0
attr interpolationmode none
attr source dropPkBitError
attr title "packets dropped/bit error, count"
scalar MeshLAN.host[2].lo0.lo droppedPkBitError:sum(packetBytes) 0
attr interpolationmode none
attr source dropPkBitError
attr title "packets dropped/bit error, sum(packetBytes)"
scalar MeshLAN.host[2].lo0.lo rcvdPkFromHL:count 8
attr interpolationmode none
attr source packetReceivedFromUpper
attr title "packets received from higher layer, count"
scalar MeshLAN.host[2].lo0.lo rcvdPkFromHL:sum(packetBytes) 5344
attr interpolationmode none
attr source packetReceivedFromUpper
attr title "packets received from higher layer, sum(packetBytes)"
scalar MeshLAN.host[2].lo0.lo passedUpPk:count 8
attr interpolationmode none
attr source packetSentToUpper
attr title "packets passed to higher layer, count"
scalar MeshLAN.host[2].lo0.lo passedUpPk:sum(packetBytes) 5344
attr interpolationmode none
attr source packetSentToUpper
attr title "packets passed to higher layer, sum(packetBytes)"
scalar MeshLAN.host[2].eth[0].queue.pauseQueue queueLength:max nan
attr interpolationmode sample-hold
attr title "queue length, max"
scalar MeshLAN.host[2].eth[0].queue.pauseQueue queueLength:timeavg nan
attr interpolationmode sample-hold
attr title "queue length, timeavg"
statistic MeshLAN.host[2].eth[0].queue.pauseQueue queueingTime:histogram
field count 0
field mean nan
field stddev nan
field min nan
field max nan
field sum 0
field sqrsum 0
attr interpolationmode none
attr title "queueing time, histogram"
bin	-inf	0
bin	-0.5	0
bin	-0.46666666666667	0
bin	-0.43333333333333	0
bin	-0.4	0
bin	-0.36666666666667	0
bin	-0.33333333333333	0
bin	-0.3	0
bin	-0.26666666666667	0
bin	-0.23333333333333	0
bin	-0.2	0
bin	-0.16666666666667	0
bin	-0.13333333333333	0
bin	-0.1	0
bin	-0.066666666666667	0
bin	-0.033333333333333	0
bin	0	0
bin	0.033333333333333	0
bin	0.066666666666667	0
bin	0.1	0
bin	0.13333333333333	0
bin	0.16666666666667	0
bin	0.2	0
bin	0.23333333333333	0
bin	0.26666666666667	0
bin	0.3	0
bin	0.33333333333333	0
bin	0.36666666666667	0
bin	0.4	0
bin	0.43333333333333	0
bin	0.46666666666667	0
bin	0.5	0
scalar MeshLAN.host[2].eth[0].queue.pauseQueue dropPk:count 0
attr interpolationmode none
attr source dropPkByQueue
attr title "dropped packets, count"
scalar MeshLAN.host[2].eth[0].queue.pauseQueue dropPk:sum(packetBytes) 0
attr interpolationmode none
attr source dropPkByQueue
attr title "dropped packets, sum(packetBytes)"
scalar MeshLAN.host[2].eth[0].queue.pauseQueue rcvdPk:count 0
attr interpolationmode none
attr title "received packets, count"
scalar MeshLAN.host[2].eth[0].queue.pauseQueue rcvdPk:sum(packetBytes) 0
attr interpolationmode none
attr title "received packets, sum(packetBytes)"
scalar MeshLAN.host[2].eth[0].queue.dataQueue queueLength:max 1
attr interpolationmode sample-hold
attr title "queue length, max"
scalar MeshLAN.host[2].eth[0].queue.dataQueue queueLength:timeavg 3.9507365896683e-005
attr interpolationmode sample-hold
attr title "queue length, timeavg"
statistic MeshLAN.host[2].eth[0].queue.dataQueue queueingTime:histogram
field count 321
field mean 1.8457320872274e-006
field stddev 1.2381178741966e-005
field min 0
field max 8.464e-005
field sum 0.00059248
field sqrsum 5.01475072e-008
attr interpolationmode none
attr title "queueing time, histogram"
bin	-inf	0
bin	-4.232e-005	0
bin	-3.6677333333333e-005	0
bin	-3.1034666666667e-005	0
bin	-2.5392e-005	0
bin	-1.9749333333333e-005	0
bin	-1.4106666666667e-005	0
bin	-8.464e-006	0
bin	-2.8213333333333e-006	314
bin	2.8213333333333e-006	0
bin	8.464e-006	0
bin	1.4106666666667e-005	0
bin	1.9749333333333e-005	0
bin	2.5392e-005	0
bin	3.1034666666667e-005	0
bin	3.6677333333333e-005	0
bin	4.232e-005	0
bin	4.7962666666667e-005	0
bin	5.3605333333333e-005	0
bin	5.9248e-005	0
bin	6.4890666666667e-005	0
bin	7.0533333333333e-005	0
bin	7.6176e-005	0
bin	8.1818666666667e-005	7
bin	8.7461333333333e-005	0
bin	9.3104e-005	0
bin	9.8746666666667e-005	0
bin	0.00010438933333333	0
bin	0.000110032	0
bin	0.00011567466666667	0
bin	0.00012131733333333	0
bin	0.00012696	0
scalar MeshLAN.host[2].eth[0].queue.dataQueue dropPk:count 0
attr interpolationmode none
attr source dropPkByQueue
attr title "dropped packets, count"
scalar MeshLAN.host[2].eth[0].queue.dataQueue dropPk:sum(packetBytes) 0
attr interpolationmode none
attr source dropPkByQueue
attr title "dropped packets, sum(packetBytes)"
scalar MeshLAN.host[2].eth[0].queue.dataQueue rcvdPk:count 321
attr interpolationmode none
attr title "received packets, count"
scalar MeshLAN.host[2].eth[0].queue.dataQueue rcvdPk:sum(packetBytes) 223018
attr interpolationmode none
attr title "received packets, sum(packetBytes)"
scalar MeshLAN.host[2].eth[0].mac "simulated time" 20
scalar MeshLAN.host[2].eth[0].mac full-duplex 1
scalar MeshLAN.host[2].eth[0].mac "frames/sec sent" 21.45
scalar MeshLAN.host[2].eth[0].mac "frames/sec rcvd" 21.45
scalar MeshLAN.host[2].eth[0].mac "bits/sec sent" 118834.8
scalar MeshLAN.host[2].eth[0].mac "bits/sec rcvd" 118834.8
scalar MeshLAN.host[2].eth[0].mac "rx channel idle (%)" 99.8797924
scalar MeshLAN.host[2].eth[0].mac "rx channel utilization (%)" 0.1202076
scalar MeshLAN.host[2].eth[0].mac rxPkFromHL:count 321
attr interpolationmode none
attr source rxPkFromHL
attr title "packet bytes from higher layer, count"
scalar MeshLAN.host[2].eth[0].mac rxPkFromHL:sum(packetBytes) 223018
attr interpolationmode none
attr source rxPkFromHL
attr title "packet bytes from higher layer, sum(packetBytes)"
scalar MeshLAN.host[2].eth[0].mac rxPausePkUnits:count 0
attr interpolationmode none
attr title "pause units received, count"
scalar MeshLAN.host[2].eth[0].mac rxPausePkUnits:sum 0
attr interpolationmode none
attr title "pause units received, sum"
scalar MeshLAN.host[2].eth[0].mac txPausePkUnits:count 0
attr interpolationmode none
attr title "pause units sent, count"
scalar MeshLAN.host[2].eth[0].mac txPausePkUnits:sum 0
attr interpolationmode none
attr title "pause units sent, sum"
scalar MeshLAN.host[2].eth[0].mac txPk:count 321
attr interpolationmode none
attr source txPk
attr title "packets transmitted, count"
scalar MeshLAN.host[2].eth[0].mac txPk:sum(packetBytes) 223018
attr interpolationmode none
attr source txPk
attr title "packets transmitted, sum(packetBytes)"
scalar MeshLAN.host[2].eth[0].mac droppedPkNotForUs:count 0
attr interpolationmode none
attr source dropPkNotForUs
attr title "packets dropped/not for us, count"
scalar MeshLAN.host[2].eth[0].mac droppedPkNotForUs:sum(packetBytes) 0
attr interpolationmode none
attr source dropPkNotForUs
attr title "packets dropped/not for us, sum(packetBytes)"
scalar MeshLAN.host[2].eth[0].mac droppedPkBitError:count 0
attr interpolationmode none
attr source dropPkBitError
attr title "packets dropped/bit error, count"
scalar MeshLAN.host[2].eth[0].mac droppedPkBitError:sum(packetBytes) 0
attr interpolationmode none
attr source dropPkBitError
attr title "packets dropped/bit error, sum(packetBytes)"
scalar MeshLAN.host[2].eth[0].mac droppedPkIfaceDown:count 0
attr interpolationmode none
attr source dropPkIfaceDown
attr title "packets dropped/interface down, count"
scalar MeshLAN.host[2].eth[0].mac droppedPkIfaceDown:sum(packetBytes) 0
attr interpolationmode none
attr source dropPkIfaceDown
attr title "packets dropped/interface down, sum(packetBytes)"
scalar MeshLAN.host[2].eth[0].mac rxPkOk:count 321
attr interpolationmode none
attr source rxPkOk
attr title "packets received OK, count"
scalar MeshLAN.host[2].eth[0].mac rxPkOk:sum(packetBytes) 223018
attr interpolationmode none
attr source rxPkOk
attr title "packets received OK, sum(packetBytes)"
scalar MeshLAN.host[2].eth[0].mac passedUpPk:count 321
attr interpolationmode none
attr source packetSentToUpper
attr title "packets passed to higher layer, count"
scalar MeshLAN.host[2].eth[0].mac passedUpPk:sum(packetBytes) 223018
attr interpolationmode none
attr source packetSentToUpper
attr title "packets passed to higher layer, sum(packetBytes)"
scalar MeshLAN.host[2].eth[0].encap pauseSent:count 0
attr title "pause sent, count"
scalar MeshLAN.host[2].eth[0].encap pauseSent:sum 0
attr title "pause sent, sum"
scalar MeshLAN.host[2].eth[0].encap decapPk:count 321
attr interpolationmode none
attr source decapPk
attr title "packets decapsulated, count"
scalar MeshLAN.host[2].eth[0].encap decapPk:sum(packetBytes) 217240
attr interpolationmode none
attr source decapPk
attr title "packets decapsulated, sum(packetBytes)"
scalar MeshLAN.host[2].eth[0].encap encapPk:count 321
attr interpolationmode none
attr source encapPk
attr title "packets encapsulated, count"
scalar MeshLAN.host[2].eth[0].encap encapPk:sum(packetBytes) 217240
attr interpolationmode none
attr source encapPk
attr title "packets encapsulated, sum(packetBytes)"
scalar MeshLAN.host[2].pingApp[0] "Pings sent" 389
scalar MeshLAN.host[2].pingApp[0] "ping loss rate (%)" 0
scalar MeshLAN.host[2].pingApp[0] "ping out-of-order rate (%)" 0
scalar MeshLAN.host[2].pingApp[0] pingRxSeq:count 294
attr interpolationmode none
attr title "ping rx seq, count"
scalar MeshLAN.host[2].pingApp[0] pingTxSeq:count 294
attr interpolationmode none
attr title "ping tx seq, count"
scalar MeshLAN.host[2].pingApp[0] numOutOfOrderArrivals:last nan
attr interpolationmode none
attr title "ping out-of-order arrivals, last"
scalar MeshLAN.host[2].pingApp[0] numLost:last nan
attr interpolationmode none
attr title "pings lost, last"
scalar MeshLAN.host[2].pingApp[0] rtt:mean 0.0002183417205931
attr interpolationmode none
attr title "ping round-trip time, mean"
attr unit s
scalar MeshLAN.host[3].networkLayer.arp sentReply:count 0
attr title "ARP replies sent, count"
scalar MeshLAN.host[3].networkLayer.arp sentReq:count 0
attr title "ARP request sent, count"
scalar MeshLAN.host[3].networkLayer.arp failedARPResolution:count 0
attr title "ARP failed resolutions, count"
scalar MeshLAN.host[3].networkLayer.arp completedARPResolution:count 0
attr title "ARP completed resolutions, count"
scalar MeshLAN.host[3].networkLayer.arp initiatedARPResolution:count 0
attr title "ARP initiated resolutions, count"
scalar MeshLAN.host[3].lo0.lo droppedPkBitError:count 0
attr interpolationmode none
attr source dropPkBitError
attr title "packets dropped/bit error, count"
scalar MeshLAN.host[3].lo0.lo droppedPkBitError:sum(packetBytes) 0
attr interpolationmode none
attr source dropPkBitError
attr title "packets dropped/bit error, sum(packetBytes)"
scalar MeshLAN.host[3].lo0.lo rcvdPkFromHL:count 4
attr interpolationmode none
attr source packetReceivedFromUpper
attr title "packets received from higher layer, count"
scalar MeshLAN.host[3].lo0.lo rcvdPkFromHL:sum(packetBytes) 3560
attr interpolationmode none
attr source packetReceivedFromUpper
attr title "packets received from higher layer, sum(packetBytes)"
scalar MeshLAN.host[3].lo0.lo passedUpPk:count 4
attr interpolationmode none
attr source packetSentToUpper
attr title "packets passed to higher layer, count"
scalar MeshLAN.host[3].lo0.lo passedUpPk:sum(packetBytes) 3560
attr interpolationmode none
attr source packetSentToUpper
attr title "packets passed to higher layer, sum(packetBytes)"
scalar MeshLAN.host[3].eth[0].queue.pauseQueue queueLength:max nan
attr interpolationmode sample-hold
attr title "queue length, max"
scalar MeshLAN.host[3].eth[0].queue.pauseQueue queueLength:timeavg nan
attr interpolationmode sample-hold
attr title "queue length, timeavg"
statistic MeshLAN.host[3].eth[0].queue.pauseQueue queueingTime:histogram
field count 0
field mean nan
field stddev nan
field min nan
field max nan
field sum 0
field sqrsum 0
attr interpolationmode none
attr title "queueing time, histogram"
bin	-inf	0
bin	-0.5	0
bin	-0.46666666666667	0
bin	-0.43333333333333	0
bin	-0.4	0
bin	-0.36666666666667	0
bin	-0.33333333333333	0
bin	-0.3	0
bin	-0.26666666666667	0
bin	-0.23333333333333	0
bin	-0.2	0
bin	-0.16666666666667	0
bin	-0.13333333333333	0
bin	-0.1	0
bin	-0.066666666666667	0
bin	-0.033333333333333	0
bin	0	0
bin	0.033333333333333	0
bin	0.066666666666667	0
bin	0.1	0
bin	0.13333333333333	0
bin	0.16666666666667	0
bin	0.2	0
bin	0.23333333333333	0
bin	0.26666666666667	0
bin	0.3	0
bin	0.33333333333333	0
bin	0.36666666666667	0
bin	0.4	0
bin	0.43333333333333	0
bin	0.46666666666667	0
bin	0.5	0
scalar MeshLAN.host[3].eth[0].queue.pauseQueue dropPk:count 0
attr interpolationmode none
attr source dropPkByQueue
attr title "dropped packets, count"
scalar MeshLAN.host[3].eth[0].queue.pauseQueue dropPk:sum(packetBytes) 0
attr interpolationmode none
attr source dropPkByQueue
attr title "dropped packets, sum(packetBytes)"
scalar MeshLAN.host[3].eth[0].queue.pauseQueue rcvdPk:count 0
attr interpolationmode none
attr title "received packets, count"
scalar MeshLAN.host[3].eth[0].queue.pauseQueue rcvdPk:sum(packetBytes) 0
attr interpolationmode none
attr title "received packets, sum(packetBytes)"
scalar MeshLAN.host[3].eth[0].queue.dataQueue queueLength:max 1
attr interpolationmode sample-hold
attr title "queue length, max"
scalar MeshLAN.host[3].eth[0].queue.dataQueue queueLength:timeavg 3.4002759718253e-005
attr interpolationmode sample-hold
attr title "queue length, timeavg"
statistic MeshLAN.host[3].eth[0].queue.dataQueue queueingTime:histogram
field count 321
field mean 1.5820560747664e-006
field stddev 1.1480982406107e-005
field min 0
field max 8.464e-005
field sum 0.00050784
field sqrsum 4.29835776e-008
attr interpolationmode none
attr title "queueing time, histogram"
bin	-inf	0
bin	-4.232e-005	0
bin	-3.6677333333333e-005	0
bin	-3.1034666666667e-005	0
bin	-2.5392e-005	0
bin	-1.9749333333333e-005	0
bin	-1.4106666666667e-005	0
bin	-8.464e-006	0
bin	-2.8213333333333e-006	315
bin	2.8213333333333e-006	0
bin	8.464e-006	0
bin	1.4106666666667e-005	0
bin	1.9749333333333e-005	0
bin	2.5392e-005	0
bin	3.1034666666667e-005	0
bin	3.6677333333333e-005	0
bin	4.232e-005	0
bin	4.7962666666667e-005	0
bin	5.3605333333333e-005	0
bin	5.9248e-005	0
bin	6.4890666666667e-005	0
bin	7.0533333333333e-005	0
bin	7.6176e-005	0
bin	8.1818666666667e-005	6
bin	8.7461333333333e-005	0
bin	9.3104e-005	0
bin	9.8746666666667e-005	0
bin	0.00010438933333333	0
bin	0.000110032	0
bin	0.00011567466666667	0
bin	0.00012131733333333	0
bin	0.00012696	0
scalar MeshLAN.host[3].eth[0].queue.dataQueue dropPk:count 0
attr interpolationmode none
attr source dropPkByQueue
attr title "dropped packets, count"
scalar MeshLAN.host[3].eth[0].queue.dataQueue dropPk:sum(packetBytes) 0
attr interpolationmode none
attr source dropPkByQueue
attr title "dropped packets, sum(packetBytes)"
scalar MeshLAN.host[3].eth[0].queue.dataQueue rcvdPk:count 321
attr interpolationmode none
attr title "received packets, count"
scalar MeshLAN.host[3].eth[0].queue.dataQueue rcvdPk:sum(packetBytes) 287549
attr interpolationmode none
attr title "received packets, sum(packetBytes)"
scalar MeshLAN.host[3].eth[0].mac "simulated time" 20
scalar MeshLAN.host[3].eth[0].mac full-duplex 1
scalar MeshLAN.host[3].eth[0].mac "frames/sec sent" 21.1
scalar MeshLAN.host[3].eth[0].mac "frames/sec rcvd" 21.1
scalar MeshLAN.host[3].eth[0].mac "bits/sec sent" 150272
scalar MeshLAN.host[3].eth[0].mac "bits/sec rcvd" 150272
scalar MeshLAN.host[3].eth[0].mac "rx channel idle (%)" 99.8483776
scalar MeshLAN.host[3].eth[0].mac "rx channel utilization (%)" 0.1516224
scalar MeshLAN.host[3].eth[0].mac rxPkFromHL:count 321
attr interpolationmode none
attr source rxPkFromHL
attr title "packet bytes from higher layer, count"
scalar MeshLAN.host[3].eth[0].mac rxPkFromHL:sum(packetBytes) 287549
attr interpolationmode none
attr source rxPkFromHL
attr title "packet bytes from higher layer, sum(packetBytes)"
scalar MeshLAN.host[3].eth[0].mac rxPausePkUnits:count 0
attr interpolationmode none
attr title "pause units received, count"
scalar MeshLAN.host[3].eth[0].mac rxPausePkUnits:sum 0
attr interpolationmode none
attr title "pause units received, sum"
scalar MeshLAN.host[3].eth[0].mac txPausePkUnits:count 0
attr interpolationmode none
attr title "pause units sent, count"
scalar MeshLAN.host[3].eth[0].mac txPausePkUnits:sum 0
attr interpolationmode none
attr title "pause units sent, sum"
scalar MeshLAN.host[3].eth[0].mac txPk:count 321
attr interpolationmode none
attr source txPk
attr title "packets transmitted, count"
scalar MeshLAN.host[3].eth[0].mac txPk:sum(packetBytes) 287549
attr interpolationmode none
attr source txPk
attr title "packets transmitted, sum(packetBytes)"
scalar MeshLAN.host[3].eth[0].mac droppedPkNotForUs:count 0
attr interpolationmode none
attr source dropPkNotForUs
attr title "packets dropped/not for us, count"
scalar MeshLAN.host[3].eth[0].mac droppedPkNotForUs:sum(packetBytes) 0
attr interpolationmode none
attr source dropPkNotForUs
attr title "packets dropped/not for us, sum(packetBytes)"
scalar MeshLAN.host[3].eth[0].mac droppedPkBitError:count 0
attr interpolationmode none
attr source dropPkBitError
attr title "packets dropped/bit error, count"
scalar MeshLAN.host[3].eth[0].mac droppedPkBitError:sum(packetBytes) 0
attr interpolationmode none
attr source dropPkBitError
attr title "packets dropped/bit error, sum(packetBytes)"
scalar MeshLAN.host[3].eth[0].mac droppedPkIfaceDown:count 0
attr interpolationmode none
attr source dropPkIfaceDown
attr title "packets dropped/interface down, count"
scalar MeshLAN.host[3].eth[0].mac droppedPkIfaceDown:sum(packetBytes) 0
attr interpolationmode none
attr source dropPkIfaceDown
attr title "packets dropped/interface down, sum(packetBytes)"
scalar MeshLAN.host[3].eth[0].mac rxPkOk:count 321
attr interpolationmode none
attr source rxPkOk
attr title "packets received OK, count"
scalar MeshLAN.host[3].eth[0].mac rxPkOk:sum(packetBytes) 287549
attr interpolationmode none
attr source rxPkOk
attr title "packets received OK, sum(packetBytes)"
scalar MeshLAN.host[3].eth[0].mac passedUpPk:count 321
attr interpolationmode none
attr source packetSentToUpper
attr title "packets passed to higher layer, count"
scalar MeshLAN.host[3].eth[0].mac passedUpPk:sum(packetBytes) 287549
attr interpolationmode none
attr source packetSentToUpper
attr title "packets passed to higher layer, sum(packetBytes)"
scalar MeshLAN.host[3].eth[0].encap pauseSent:count 0
attr title "pause sent, count"
scalar MeshLAN.host[3].eth[0].encap pauseSent:sum 0
attr title "pause sent, sum"
scalar MeshLAN.host[3].eth[0].encap decapPk:count 321
attr interpolationmode none
attr source decapPk
attr title "packets decapsulated, count"
scalar MeshLAN.host[3].eth[0].encap decapPk:sum(packetBytes) 281771
attr interpolationmode none
attr source decapPk
attr title "packets decapsulated, sum(packetBytes)"
scalar MeshLAN.host[3].eth[0].encap encapPk:count 321
attr interpolationmode none
attr source encapPk
attr title "packets encapsulated, count"
scalar MeshLAN.host[3].eth[0].encap encapPk:sum(packetBytes) 281771
attr interpolationmode none
attr source encapPk
attr title "packets encapsulated, sum(packetBytes)"
scalar MeshLAN.host[3].pingApp[0] "Pings sent" 378
scalar MeshLAN.host[3].pingApp[0] "ping loss rate (%)" 0
scalar MeshLAN.host[3].pingApp[0] "ping out-of-order rate (%)" 0
scalar MeshLAN.host[3].pingApp[0] pingRxSeq:count 291
attr interpolationmode none
attr title "ping rx seq, count"
scalar MeshLAN.host[3].pingApp[0] pingTxSeq:count 291
attr interpolationmode none
attr title "ping tx seq, count"
scalar MeshLAN.host[3].pingApp[0] numOutOfOrderArrivals:last nan
attr interpolationmode none
attr title "ping out-of-order arrivals, last"
scalar MeshLAN.host[3].pingApp[0] numLost:last nan
attr interpolationmode none
attr title "pings lost, last"
scalar MeshLAN.host[3].pingApp[0] rtt:mean 0.00028996525951557
attr interpolationmode none
attr title "ping round-trip time, mean"
attr unit s
scalar MeshLAN.host[4].networkLayer.arp sentReply:count 0
attr title "ARP replies sent, count"
scalar MeshLAN.host[4].networkLayer.arp sentReq:count 0
attr title "ARP request sent, count"
scalar MeshLAN.host[4].networkLayer.arp failedARPResolution:count 0
attr title "ARP failed resolutions, count"
scalar MeshLAN.host[4].networkLayer.arp completedARPResolution:count 0
attr title "ARP completed resolutions, count"
scalar MeshLAN.host[4].networkLayer.arp initiatedARPResolution:count 0
attr title "ARP initiated resolutions, count"
scalar MeshLAN.host[4].lo0.lo droppedPkBitError:count 0
attr interpolationmode none
attr source dropPkBitError
attr title "packets dropped/bit error, count"
scalar MeshLAN.host[4].lo0.lo droppedPkBitError:sum(packetBytes) 0
attr interpolationmode none
attr source dropPkBitError
attr title "packets dropped/bit error, sum(packetBytes)"
scalar MeshLAN.host[4].lo0.lo rcvdPkFromHL:count 0
attr interpolationmode none
attr source packetReceivedFromUpper
attr title "packets received from higher layer, count"
scalar MeshLAN.host[4].lo0.lo rcvdPkFromHL:sum(packetBytes) 0
attr interpolationmode none
attr source packetReceivedFromUpper
attr title "packets received from higher layer, sum(packetBytes)"
scalar MeshLAN.host[4].lo0.lo passedUpPk:count 0
attr interpolationmode none
attr source packetSentToUpper
attr title "packets passed to higher layer, count"
scalar MeshLAN.host[4].lo0.lo passedUpPk:sum(packetBytes) 0
attr interpolationmode none
attr source packetSentToUpper
attr title "packets passed to higher layer, sum(packetBytes)"
scalar MeshLAN.host[4].eth[0].queue.pauseQueue queueLength:max nan
attr interpolationmode sample-hold
attr title "queue length, max"
scalar MeshLAN.host[4].eth[0].queue.pauseQueue queueLength:timeavg nan
attr interpolationmode sample-hold
attr title "queue length, timeavg"
statistic MeshLAN.host[4].eth[0].queue.pauseQueue queueingTime:histogram
field count 0
field mean nan
field stddev nan
field min nan
field max nan
field sum 0
field sqrsum 0
attr interpolationmode none
attr title "queueing time, histogram"
bin	-inf	0
bin	-0.5	0
bin	-0.46666666666667	0
bin	-0.43333333333333	0
bin	-0.4	0
bin	-0.36666666666667	0
bin	-0.33333333333333	0
bin	-0.3	0
bin	-0.26666666666667	0
bin	-0.23333333333333	0
bin	-0.2	0
bin	-0.16666666666667	0
bin	-0.13333333333333	0
bin	-0.1	0
bin	-0.066666666666667	0
bin	-0.033333333333333	0
bin	0	0
bin	0.033333333333333	0
bin	0.066666666666667	0
bin	0.1	0
bin	0.13333333333333	0
bin	0.16666666666667	0
bin	0.2	0
bin	0.23333333333333	0
bin	0.26666666666667	0
bin	0.3	0
bin	0.33333333333333	0
bin	0.36666666666667	0
bin	0.4	0
bin	0.43333333333333	0
bin	0.46666666666667	0
bin	0.5	0
scalar MeshLAN.host[4].eth[0].queue.pauseQueue dropPk:count 0
attr interpolationmode none
attr source dropPkByQueue
attr title "dropped packets, count"
scalar MeshLAN.host[4].eth[0].queue.pauseQueue dropPk:sum(packetBytes) 0
attr interpolationmode none
attr source dropPkByQueue
attr title "dropped packets, sum(packetBytes)"
scalar MeshLAN.host[4].eth[0].queue.pauseQueue rcvdPk:count 0
attr interpolationmode none
attr title "received packets, count"
scalar MeshLAN.host[4].eth[0].queue.pauseQueue rcvdPk:sum(packetBytes) 0
attr interpolationmode none
attr title "received packets, sum(packetBytes)"
scalar MeshLAN.host[4].eth[0].queue.dataQueue queueLength:max 1
attr interpolationmode sample-hold
attr title "queue length, max"
scalar MeshLAN.host[4].eth[0].queue.dataQueue queueLength:timeavg 4.1053424775281e-005
attr interpolationmode sample-hold
attr title "queue length, timeavg"
statistic MeshLAN.host[4].eth[0].queue.dataQueue queueingTime:histogram
field count 327
field mean 1.8805676666667e-006
field stddev 1.2321830188038e-005
field min 0
field max 8.464e-005
field sum 0.000614945627
field sqrsum 5.0652211596503e-008
attr interpolationmode none
attr title "queueing time, histogram"
bin	-inf	0
bin	-4.232e-005	0
bin	-3.6677333333333e-005	0
bin	-3.1034666666667e-005	0
bin	-2.5392e-005	0
bin	-1.9749333333333e-005	0
bin	-1.4106666666667e-005	0
bin	-8.464e-006	0
bin	-2.8213333333333e-006	319
bin	2.8213333333333e-006	0
bin	8.464e-006	0
bin	1.4106666666667e-005	0
bin	1.9749333333333e-005	1
bin	2.5392e-005	0
bin	3.1034666666667e-005	0
bin	3.6677333333333e-005	0
bin	4.232e-005	0
bin	4.7962666666667e-005	0
bin	5.3605333333333e-005	0
bin	5.9248e-005	0
bin	6.4890666666667e-005	0
bin	7.0533333333333e-005	0
bin	7.6176e-005	0
bin	8.1818666666667e-005	7
bin	8.7461333333333e-005	0
bin	9.3104e-005	0
bin	9.8746666666667e-005	0
bin	0.00010438933333333	0
bin	0.000110032	0
bin	0.00011567466666667	0
bin	0.00012131733333333	0
bin	0.00012696	0
scalar MeshLAN.host[4].eth[0].queue.dataQueue dropPk:count 0
attr interpolationmode none
attr source dropPkByQueue
attr title "dropped packets, count"
scalar MeshLAN.host[4].eth[0].queue.dataQueue dropPk:sum(packetBytes) 0
attr interpolationmode none
attr source dropPkByQueue
attr title "dropped packets, sum(packetBytes)"
scalar MeshLAN.host[4].eth[0].queue.dataQueue rcvdPk:count 327
attr interpolationmode none
attr title "received packets, count"
scalar MeshLAN.host[4].eth[0].queue.dataQueue rcvdPk:sum(packetBytes) 285014
attr interpolationmode none
attr title "received packets, sum(packetBytes)"
scalar MeshLAN.host[4].eth[0].mac "simulated time" 20
scalar MeshLAN.host[4].eth[0].mac full-duplex 1
scalar MeshLAN.host[4].eth[0].mac "frames/sec sent" 21.9
scalar MeshLAN.host[4].eth[0].mac "frames/sec rcvd" 21.9
scalar MeshLAN.host[4].eth[0].mac "bits/sec sent" 152337.6
scalar MeshLAN.host[4].eth[0].mac "bits/sec rcvd" 152337.6
scalar MeshLAN.host[4].eth[0].mac "rx channel idle (%)" 99.8462608
scalar MeshLAN.host[4].eth[0].mac "rx channel utilization (%)" 0.1537392
scalar MeshLAN.host[4].eth[0].mac rxPkFromHL:count 327
attr interpolationmode none
attr source rxPkFromHL
attr title "packet bytes from higher layer, count"
scalar MeshLAN.host[4].eth[0].mac rxPkFromHL:sum(packetBytes) 285014
attr interpolationmode none
attr source rxPkFromHL
attr title "packet bytes from higher layer, sum(packetBytes)"
scalar MeshLAN.host[4].eth[0].mac rxPausePkUnits:count 0
attr interpolationmode none
attr title "pause units received, count"
scalar MeshLAN.host[4].eth[0].mac rxPausePkUnits:sum 0
attr interpolationmode none
attr title "pause units received, sum"
scalar MeshLAN.host[4].eth[0].mac txPausePkUnits:count 0
attr interpolationmode none
attr title "pause units sent, count"
scalar MeshLAN.host[4].eth[0].mac txPausePkUnits:sum 0
attr interpolationmode none
attr title "pause units sent, sum"
scalar MeshLAN.host[4].eth[0].mac txPk:count 327
attr interpolationmode none
attr source txPk
attr title "packets transmitted, count"
scalar MeshLAN.host[4].eth[0].mac txPk:sum(packetBytes) 285014
attr interpolationmode none
attr source txPk
attr title "packets transmitted, sum(packetBytes)"
scalar MeshLAN.host[4].eth[0].mac droppedPkNotForUs:count 0
attr interpolationmode none
attr source dropPkNotForUs
attr title "packets dropped/not for us, count"
scalar MeshLAN.host[4].eth[0].mac droppedPkNotForUs:sum(packetBytes) 0
attr interpolationmode none
attr source dropPkNotForUs
attr title "packets dropped/not for us, sum(packetBytes)"
scalar MeshLAN.host[4].eth[0].mac droppedPkBitError:count 0
attr interpolationmode none
attr source dropPkBitError
attr title "packets dropped/bit error, count"
scalar MeshLAN.host[4].eth[0].mac droppedPkBitError:sum(packetBytes) 0
attr interpolationmode none
attr source dropPkBitError
attr title "packets dropped/bit error, sum(packetBytes)"
scalar MeshLAN.host[4].eth[0].mac droppedPkIfaceDown:count 0
attr interpolationmode none
attr source dropPkIfaceDown
attr title "packets dropped/interface down, count"
scalar MeshLAN.host[4].eth[0].mac droppedPkIfaceDown:sum(packetBytes) 0
attr interpolationmode none
attr source dropPkIfaceDown
attr title "packets dropped/interface down, sum(packetBytes)"
scalar MeshLAN.host[4].eth[0].mac rxPkOk:count 327
attr interpolationmode none
attr source rxPkOk
attr title "packets received OK, count"
scalar MeshLAN.host[4].eth[0].mac rxPkOk:sum(packetBytes) 285014
attr interpolationmode none
attr source rxPkOk
attr title "packets received OK, sum(packetBytes)"
scalar MeshLAN.host[4].eth[0].mac passedUpPk:count 327
attr interpolationmode none
attr source packetSentToUpper
attr title "packets passed to higher layer, count"
scalar MeshLAN.host[4].eth[0].mac passedUpPk:sum(packetBytes) 285014
attr interpolationmode none
attr source packetSentToUpper
attr title "packets passed to higher layer, sum(packetBytes)"
scalar MeshLAN.host[4].eth[0].encap pauseSent:count 0
attr title "pause sent, count"
scalar MeshLAN.host[4].eth[0].encap pauseSent:sum 0
attr title "pause sent, sum"
scalar MeshLAN.host[4].eth[0].encap decapPk:count 327
attr interpolationmode none
attr source decapPk
attr title "packets decapsulated, count"
scalar MeshLAN.host[4].eth[0].encap decapPk:sum(packetBytes) 279128
attr interpolationmode none
attr source decapPk
attr title "packets decapsulated, sum(packetBytes)"
scalar MeshLAN.host[4].eth[0].encap encapPk:count 327
attr interpolationmode none
attr source encapPk
attr title "packets encapsulated, count"
scalar MeshLAN.host[4].eth[0].encap encapPk:sum(packetBytes) 279128
attr interpolationmode none
attr source encapPk
attr title "packets encapsulated, sum(packetBytes)"
scalar MeshLAN.host[4].pingApp[0] "Pings sent" 398
scalar MeshLAN.host[4].pingApp[0] "ping loss rate (%)" 0
scalar MeshLAN.host[4].pingApp[0] "ping out-of-order rate (%)" 0
scalar MeshLAN.host[4].pingApp[0] pingRxSeq:count 299
attr interpolationmode none
attr title "ping rx seq, count"
scalar MeshLAN.host[4].pingApp[0] pingTxSeq:count 299
attr interpolationmode none
attr title "ping tx seq, count"
scalar MeshLAN.host[4].pingApp[0] numOutOfOrderArrivals:last nan
attr interpolationmode none
attr title "ping out-of-order arrivals, last"
scalar MeshLAN.host[4].pingApp[0] numLost:last nan
attr interpolationmode none
attr title "pings lost, last"
scalar MeshLAN.host[4].pingApp[0] rtt:mean 0.00028050590510702
attr interpolationmode none
attr title "ping round-trip time, mean"
attr unit s
scalar MeshLAN.host[5].networkLayer.arp sentReply:count 0
attr title "ARP replies sent, count"
scalar MeshLAN.host[5].networkLayer.arp sentReq:count 0
attr title "ARP request sent, count"
scalar MeshLAN.host[5].networkLayer.arp failedARPResolution:count 0
attr title "ARP failed resolutions, count"
scalar MeshLAN.host[5].networkLayer.arp completedARPResolution:count 0
attr title "ARP completed resolutions, count"
scalar MeshLAN.host[5].networkLayer.arp initiatedARPResolution:count 0
attr title "ARP initiated resolutions, count"
scalar MeshLAN.host[5].lo0.lo droppedPkBitError:count 0
attr interpolationmode none
attr source dropPkBitError
attr title "packets dropped/bit error, count"
scalar MeshLAN.host[5].lo0.lo droppedPkBitError:sum(packetBytes) 0
attr interpolationmode none
attr source dropPkBitError
attr title "packets dropped/bit error, sum(packetBytes)"
scalar MeshLAN.host[5].lo0.lo rcvdPkFromHL:count 16
attr interpolationmode none
attr source packetReceivedFromUpper
attr title "packets received from higher layer, count"
scalar MeshLAN.host[5].lo0.lo rcvdPkFromHL:sum(packetBytes) 11336
attr interpolationmode none
attr source packetReceivedFromUpper
attr title "packets received from higher layer, sum(packetBytes)"
scalar MeshLAN.host[5].lo0.lo passedUpPk:count 16
attr interpolationmode none
attr source packetSentToUpper
attr title "packets passed to higher layer, count"
scalar MeshLAN.host[5].lo0.lo passedUpPk:sum(packetBytes) 11336
attr interpolationmode none
attr source packetSentToUpper
attr title "packets passed to higher layer, sum(packetBytes)"
scalar MeshLAN.host[5].eth[0].queue.pauseQueue queueLength:max nan
attr interpolationmode sample-hold
attr title "queue length, max"
scalar MeshLAN.host[5].eth[0].queue.pauseQueue queueLength:timeavg nan
attr interpolationmode sample-hold
attr title "queue length, timeavg"
statistic MeshLAN.host[5].eth[0].queue.pauseQueue queueingTime:histogram
field count 0
field mean nan
field stddev nan
field min nan
field max nan
field sum 0
field sqrsum 0
attr interpolationmode none
attr title "queueing time, histogram"
bin	-inf	0
bin	-0.5	0
bin	-0.46666666666667	0
bin	-0.43333333333333	0
bin	-0.4	0
bin	-0.36666666666667	0
bin	-0.33333333333333	0
bin	-0.3	0
bin	-0.26666666666667	0
bin	-0.23333333333333	0
bin	-0.2	0
bin	-0.16666666666667	0
bin	-0.13333333333333	0
bin	-0.1	0
bin	-0.066666666666667	0
bin	-0.033333333333333	0
bin	0	0
bin	0.033333333333333	0
bin	0.066666666666667	0
bin	0.1	0
bin	0.13333333333333	0
bin	0.16666666666667	0
bin	0.2	0
bin	0.23333333333333	0
bin	0.26666666666667	0
bin	0.3	0
bin	0.33333333333333	0
bin	0.36666666666667	0
bin	0.4	0
bin	0.43333333333333	0
bin	0.46666666666667	0
bin	0.5	0
scalar MeshLAN.host[5].eth[0].queue.pauseQueue dropPk:count 0
attr interpolationmode none
attr source dropPkByQueue
attr title "dropped packets, count"
scalar MeshLAN.host[5].eth[0].queue.pauseQueue dropPk:sum(packetBytes) 0
attr interpolationmode none
attr source dropPkByQueue
attr title "dropped packets, sum(packetBytes)"
scalar MeshLAN.host[5].eth[0].queue.pauseQueue rcvdPk:count 0
attr interpolationmode none
attr title "received packets, count"
scalar MeshLAN.host[5].eth[0].queue.pauseQueue rcvdPk:sum(packetBytes) 0
attr interpolationmode none
attr title "received packets, sum(packetBytes)"
scalar MeshLAN.host[5].eth[0].queue.dataQueue queueLength:max 1
attr interpolationmode sample-hold
attr title "queue length, max"
scalar MeshLAN.host[5].eth[0].queue.dataQueue queueLength:timeavg 0.0016308456616955
attr interpolationmode sample-hold
attr title "queue length, timeavg"
statistic MeshLAN.host[5].eth[0].queue.dataQueue queueingTime:histogram
field count 601
field mean 4.0700432612313e-005
field stddev 4.2324224747527e-005
field min 0
field max 8.464e-005
field sum 0.02446096
field sqrsum 2.0703756544e-006
attr interpolationmode none
attr title "queueing time, histogram"
bin	-inf	0
bin	-4.232e-005	0
bin	-3.6677333333333e-005	0
bin	-3.1034666666667e-005	0
bin	-2.5392e-005	0
bin	-1.9749333333333e-005	0
bin	-1.4106666666667e-005	0
bin	-8.464e-006	0
bin	-2.8213333333333e-006	312
bin	2.8213333333333e-006	0
bin	8.464e-006	0
bin	1.4106666666667e-005	0
bin	1.9749333333333e-005	0
bin	2.5392e-005	0
bin	3.1034666666667e-005	0
bin	3.6677333333333e-005	0
bin	4.232e-005	0
bin	4.7962666666667e-005	0
bin	5.3605333333333e-005	0
bin	5.9248e-005	0
bin	6.4890666666667e-005	0
bin	7.0533333333333e-005	0
bin	7.6176e-005	0
bin	8.1818666666667e-005	289
bin	8.7461333333333e-005	0
bin	9.3104e-005	0
bin	9.8746666666667e-005	0
bin	0.00010438933333333	0
bin	0.000110032	0
bin	0.00011567466666667	0
bin	0.00012131733333333	0
bin	0.00012696	0
scalar MeshLAN.host[5].eth[0].queue.dataQueue dropPk:count 0
attr interpolationmode none
attr source dropPkByQueue
attr title "dropped packets, count"
scalar MeshLAN.host[5].eth[0].queue.dataQueue dropPk:sum(packetBytes) 0
attr interpolationmode none
attr source dropPkByQueue
attr title "dropped packets, sum(packetBytes)"
scalar MeshLAN.host[5].eth[0].queue.dataQueue rcvdPk:count 601
attr interpolationmode none
attr title "received packets, count"
scalar MeshLAN.host[5].eth[0].queue.dataQueue rcvdPk:sum(packetBytes) 439389
attr interpolationmode none
attr title "received packets, sum(packetBytes)"
scalar MeshLAN.host[5].eth[0].mac "simulated time" 20
scalar MeshLAN.host[5].eth[0].mac full-duplex 1
scalar MeshLAN.host[5].eth[0].mac "frames/sec sent" 40.3
scalar MeshLAN.host[5].eth[0].mac "frames/sec rcvd" 40.3
scalar MeshLAN.host[5].eth[0].mac "bits/sec sent" 235406.4
scalar MeshLAN.host[5].eth[0].mac "bits/sec rcvd" 235406.4
scalar MeshLAN.host[5].eth[0].mac "rx channel idle (%)" 99.7620144
scalar MeshLAN.host[5].eth[0].mac "rx channel utilization (%)" 0.2379856
scalar MeshLAN.host[5].eth[0].mac rxPkFromHL:count 601
attr interpolationmode none
attr source rxPkFromHL
attr title "packet bytes from higher layer, count"
scalar MeshLAN.host[5].eth[0].mac rxPkFromHL:sum(packetBytes) 439389
attr interpolationmode none
attr source rxPkFromHL
attr title "packet bytes from higher layer, sum(packetBytes)"
scalar MeshLAN.host[5].eth[0].mac rxPausePkUnits:count 0
attr interpolationmode none
attr title "pause units received, count"
scalar MeshLAN.host[5].eth[0].mac rxPausePkUnits:sum 0
attr interpolationmode none
attr title "pause units received, sum"
scalar MeshLAN.host[5].eth[0].mac txPausePkUnits:count 0
attr interpolationmode none
attr title "pause units sent, count"
scalar MeshLAN.host[5].eth[0].mac txPausePkUnits:sum 0
attr interpolationmode none
attr title "pause units sent, sum"
scalar MeshLAN.host[5].eth[0].mac txPk:count 601
attr interpolationmode none
attr source txPk
attr title "packets transmitted, count"
scalar MeshLAN.host[5].eth[0].mac txPk:sum(packetBytes) 439389
attr interpolationmode none
attr source txPk
attr title "packets transmitted, sum(packetBytes)"
scalar MeshLAN.host[5].eth[0].mac droppedPkNotForUs:count 0
attr interpolationmode none
attr source dropPkNotForUs
attr title "packets dropped/not for us, count"
scalar MeshLAN.host[5].eth[0].mac droppedPkNotForUs:sum(packetBytes) 0
attr interpolationmode none
attr source dropPkNotForUs
attr title "packets dropped/not for us, sum(packetBytes)"
scalar MeshLAN.host[5].eth[0].mac droppedPkBitError:count 0
attr interpolationmode none
attr source dropPkBitError
attr title "packets dropped/bit error, count"
scalar MeshLAN.host[5].eth[0].mac droppedPkBitError:sum(packetBytes) 0
attr interpolationmode none
attr source dropPkBitError
attr title "packets dropped/bit error, sum(packetBytes)"
scalar MeshLAN.host[5].eth[0].mac droppedPkIfaceDown:count 0
attr interpolationmode none
attr source dropPkIfaceDown
attr title "packets dropped/interface down, count"
scalar MeshLAN.host[5].eth[0].mac droppedPkIfaceDown:sum(packetBytes) 0
attr interpolationmode none
attr source dropPkIfaceDown
attr title "packets dropped/interface down, sum(packetBytes)"
scalar MeshLAN.host[5].eth[0].mac rxPkOk:count 601
attr interpolationmode none
attr source rxPkOk
attr title "packets received OK, count"
scalar MeshLAN.host[5].eth[0].mac rxPkOk:sum(packetBytes) 439389
attr interpolationmode none
attr source rxPkOk
attr title "packets received OK, sum(packetBytes)"
scalar MeshLAN.host[5].eth[0].mac passedUpPk:count 601
attr interpolationmode none
attr source packetSentToUpper
attr title "packets passed to higher layer, count"
scalar MeshLAN.host[5].eth[0].mac passedUpPk:sum(packetBytes) 439389
attr interpolationmode none
attr source packetSentToUpper
attr title "packets passed to higher layer, sum(packetBytes)"
scalar MeshLAN.host[5].eth[0].encap pauseSent:count 0
attr title "pause sent, count"
scalar MeshLAN.host[5].eth[0].encap pauseSent:sum 0
attr title "pause sent, sum"
scalar MeshLAN.host[5].eth[0].encap decapPk:count 601
attr interpolationmode none
attr source decapPk
attr title "packets decapsulated, count"
scalar MeshLAN.host[5].eth[0].encap decapPk:sum(packetBytes) 428571
attr interpolationmode none
attr source decapPk
attr title "packets decapsulated, sum(packetBytes)"
scalar MeshLAN.host[5].eth[0].encap encapPk:count 601
attr interpolationmode none
attr source encapPk
attr title "packets encapsulated, count"
scalar MeshLAN.host[5].eth[0].encap encapPk:sum(packetBytes) 428571
attr interpolationmode none
attr source encapPk
attr title "packets encapsulated, sum(packetBytes)"
scalar MeshLAN.host[5].pingApp[0] "Pings sent" 387
scalar MeshLAN.host[5].pingApp[0] "ping loss rate (%)" 0
scalar MeshLAN.host[5].pingApp[0] "ping out-of-order rate (%)" 0
scalar MeshLAN.host[5].pingApp[0] pingRxSeq:count 290
attr interpolationmode none
attr title "ping rx seq, count"
scalar MeshLAN.host[5].pingApp[0] pingTxSeq:count 290
attr interpolationmode none
attr title "ping tx seq, count"
scalar MeshLAN.host[5].pingApp[0] numOutOfOrderArrivals:last nan
attr interpolationmode none
attr title "ping out-of-order arrivals, last"
scalar MeshLAN.host[5].pingApp[0] numLost:last nan
attr interpolationmode none
attr title "pings lost, last"
scalar MeshLAN.host[5].pingApp[0] rtt:mean 0.00040136179296853
attr interpolationmode none
attr title "ping round-trip time, mean"
attr unit s
scalar MeshLAN.host[6].networkLayer.arp sentReply:count 0
attr title "ARP replies sent, count"
scalar MeshLAN.host[6].networkLayer.arp sentReq:count 0
attr title "ARP request sent, count"
scalar MeshLAN.host[6].networkLayer.arp failedARPResolution:count 0
attr title "ARP failed resolutions, count"
scalar MeshLAN.host[6].networkLayer.arp completedARPResolution:count 0
attr title "ARP completed resolutions, count"
scalar MeshLAN.host[6].networkLayer.arp initiatedARPResolution:count 0
attr title "ARP initiated resolutions, count"
scalar MeshLAN.host[6].lo0.lo droppedPkBitError:count 0
attr interpolationmode none
attr source dropPkBitError
attr title "packets dropped/bit error, count"
scalar MeshLAN.host[6].lo0.lo droppedPkBitError:sum(packetBytes) 0
attr interpolationmode none
attr source dropPkBitError
attr title "packets dropped/bit error, sum(packetBytes)"
scalar MeshLAN.host[6].lo0.lo rcvdPkFromHL:count 4
attr interpolationmode none
attr source packetReceivedFromUpper
attr title "packets received from higher layer, count"
scalar MeshLAN.host[6].lo0.lo rcvdPkFromHL:sum(packetBytes) 2132
attr interpolationmode none
attr source packetReceivedFromUpper
attr title "packets received from higher layer, sum(packetBytes)"
scalar MeshLAN.host[6].lo0.lo passedUpPk:count 4
attr interpolationmode none
attr source packetSentToUpper
attr title "packets passed to higher layer, count"
scalar MeshLAN.host[6].lo0.lo passedUpPk:sum(packetBytes) 2132
attr interpolationmode none
attr source packetSentToUpper
attr title "packets passed to higher layer, sum(packetBytes)"
scalar MeshLAN.host[6].eth[0].queue.pauseQueue queueLength:max nan
attr interpolationmode sample-hold
attr title "queue length, max"
scalar MeshLAN.host[6].eth[0].queue.pauseQueue queueLength:timeavg nan
attr interpolationmode sample-hold
attr title "queue length, timeavg"
statistic MeshLAN.host[6].eth[0].queue.pauseQueue queueingTime:histogram
field count 0
field mean nan
field stddev nan
field min nan
field max nan
field sum 0
field sqrsum 0
attr interpolationmode none
attr title "queueing time, histogram"
bin	-inf	0
bin	-0.5	0
bin	-0.46666666666667	0
bin	-0.43333333333333	0
bin	-0.4	0
bin	-0.36666666666667	0
bin	-0.33333333333333	0
bin	-0.3	0
bin	-0.26666666666667	0
bin	-0.23333333333333	0
bin	-0.2	0
bin	-0.16666666666667	0
bin	-0.13333333333333	0
bin	-0.1	0
bin	-0.066666666666667	0
bin	-0.033333333333333	0
bin	0	0
bin	0.033333333333333	0
bin	0.066666666666667	0
bin	0.1	0
bin	0.13333333333333	0
bin	0.16666666666667	0
bin	0.2	0
bin	0.23333333333333	0
bin	0.26666666666667	0
bin	0.3	0
bin	0.33333333333333	0
bin	0.36666666666667	0
bin	0.4	0
bin	0.43333333333333	0
bin	0.46666666666667	0
bin	0.5	0
scalar MeshLAN.host[6].eth[0].queue.pauseQueue dropPk:count 0
attr interpolationmode none
attr source dropPkByQueue
attr title "dropped packets, count"
scalar MeshLAN.host[6].eth[0].queue.pauseQueue dropPk:sum(packetBytes) 0
attr interpolationmode none
attr source dropPkByQueue
attr title "dropped packets, sum(packetBytes)"
scalar MeshLAN.host[6].eth[0].queue.pauseQueue rcvdPk:count 0
attr interpolationmode none
attr title "received packets, count"
scalar MeshLAN.host[6].eth[0].queue.pauseQueue rcvdPk:sum(packetBytes) 0
attr interpolationmode none
attr title "received packets, sum(packetBytes)"
scalar MeshLAN.host[6].eth[0].queue.dataQueue queueLength:max 1
attr interpolationmode sample-hold
attr title "queue length, max"
scalar MeshLAN.host[6].eth[0].queue.dataQueue queueLength:timeavg 5.0947163574057e-005
attr interpolationmode sample-hold
attr title "queue length, timeavg"
statistic MeshLAN.host[6].eth[0].queue.dataQueue queueingTime:histogram
field count 313
field mean 2.4337380191693e-006
field stddev 1.4167206866758e-005
field min 0
field max 8.464e-005
field sum 0.00076176
field sqrsum 6.44753664e-008
attr interpolationmode none
attr title "queueing time, histogram"
bin	-inf	0
bin	-4.232e-005	0
bin	-3.6677333333333e-005	0
bin	-3.1034666666667e-005	0
bin	-2.5392e-005	0
bin	-1.9749333333333e-005	0
bin	-1.4106666666667e-005	0
bin	-8.464e-006	0
bin	-2.8213333333333e-006	304
bin	2.8213333333333e-006	0
bin	8.464e-006	0
bin	1.4106666666667e-005	0
bin	1.9749333333333e-005	0
bin	2.5392e-005	0
bin	3.1034666666667e-005	0
bin	3.6677333333333e-005	0
bin	4.232e-005	0
bin	4.7962666666667e-005	0
bin	5.3605333333333e-005	0
bin	5.9248e-005	0
bin	6.4890666666667e-005	0
bin	7.0533333333333e-005	0
bin	7.6176e-005	0
bin	8.1818666666667e-005	9
bin	8.7461333333333e-005	0
bin	9.3104e-005	0
bin	9.8746666666667e-005	0
bin	0.00010438933333333	0
bin	0.000110032	0
bin	0.00011567466666667	0
bin	0.00012131733333333	0
bin	0.00012696	0
scalar MeshLAN.host[6].eth[0].queue.dataQueue dropPk:count 0
attr interpolationmode none
attr source dropPkByQueue
attr title "dropped packets, count"
scalar MeshLAN.host[6].eth[0].queue.dataQueue dropPk:sum(packetBytes) 0
attr interpolationmode none
attr source dropPkByQueue
attr title "dropped packets, sum(packetBytes)"
scalar MeshLAN.host[6].eth[0].queue.dataQueue rcvdPk:count 313
attr interpolationmode none
attr title "received packets, count"
scalar MeshLAN.host[6].eth[0].queue.dataQueue rcvdPk:sum(packetBytes) 180598
attr interpolationmode none
attr title "received packets, sum(packetBytes)"
scalar MeshLAN.host[6].eth[0].mac "simulated time" 20
scalar MeshLAN.host[6].eth[0].mac full-duplex 1
scalar MeshLAN.host[6].eth[0].mac "frames/sec sent" 20.8
scalar MeshLAN.host[6].eth[0].mac "frames/sec rcvd" 20.8
scalar MeshLAN.host[6].eth[0].mac "bits/sec sent" 95720
scalar MeshLAN.host[6].eth[0].mac "bits/sec rcvd" 95720
scalar MeshLAN.host[6].eth[0].mac "rx channel idle (%)" 99.9029488
scalar MeshLAN.host[6].eth[0].mac "rx channel utilization (%)" 0.0970512
scalar MeshLAN.host[6].eth[0].mac rxPkFromHL:count 313
attr interpolationmode none
attr source rxPkFromHL
attr title "packet bytes from higher layer, count"
scalar MeshLAN.host[6].eth[0].mac rxPkFromHL:sum(packetBytes) 180598
attr interpolationmode none
attr source rxPkFromHL
attr title "packet bytes from higher layer, sum(packetBytes)"
scalar MeshLAN.host[6].eth[0].mac rxPausePkUnits:count 0
attr interpolationmode none
attr title "pause units received, count"
scalar MeshLAN.host[6].eth[0].mac rxPausePkUnits:sum 0
attr interpolationmode none
attr title "pause units received, sum"
scalar MeshLAN.host[6].eth[0].mac txPausePkUnits:count 0
attr interpolationmode none
attr title "pause units sent, count"
scalar MeshLAN.host[6].eth[0].mac txPausePkUnits:sum 0
attr interpolationmode none
attr title "pause units sent, sum"
scalar MeshLAN.host[6].eth[0].mac txPk:count 313
attr interpolationmode none
attr source txPk
attr title "packets transmitted, count"
scalar MeshLAN.host[6].eth[0].mac txPk:sum(packetBytes) 180598
attr interpolationmode none
attr source txPk
attr title "packets transmitted, sum(packetBytes)"
scalar MeshLAN.host[6].eth[0].mac droppedPkNotForUs:count 0
attr interpolationmode none
attr source dropPkNotForUs
attr title "packets dropped/not for us, count"
scalar MeshLAN.host[6].eth[0].mac droppedPkNotForUs:sum(packetBytes) 0
attr interpolationmode none
attr source dropPkNotForUs
attr title "packets dropped/not for us, sum(packetBytes)"
scalar MeshLAN.host[6].eth[0].mac droppedPkBitError:count 0
attr interpolationmode none
attr source dropPkBitError
attr title "packets dropped/bit error, count"
scalar MeshLAN.host[6].eth[0].mac droppedPkBitError:sum(packetBytes) 0
attr interpolationmode none
attr source dropPkBitError
attr title "packets dropped/bit error, sum(packetBytes)"
scalar MeshLAN.host[6].eth[0].mac droppedPkIfaceDown:count 0
attr interpolationmode none
attr source dropPkIfaceDown
attr title "packets dropped/interface down, count"
scalar MeshLAN.host[6].eth[0].mac droppedPkIfaceDown:sum(packetBytes) 0
attr interpolationmode none
attr source dropPkIfaceDown
attr title "packets dropped/interface down, sum(packetBytes)"
scalar MeshLAN.host[6].eth[0].mac rxPkOk:count 313
attr interpolationmode none
attr source rxPkOk
attr title "packets received OK, count"
scalar MeshLAN.host[6].eth[0].mac rxPkOk:sum(packetBytes) 180598
attr interpolationmode none
attr source rxPkOk
attr title "packets received OK, sum(packetBytes)"
scalar MeshLAN.host[6].eth[0].mac passedUpPk:count 313
attr interpolationmode none
attr source packetSentToUpper
attr title "packets passed to higher layer, count"
scalar MeshLAN.host[6].eth[0].mac passedUpPk:sum(packetBytes) 180598
attr interpolationmode none
attr source packetSentToUpper
attr title "packets passed to higher layer, sum(packetBytes)"
scalar MeshLAN.host[6].eth[0].encap pauseSent:count 0
attr title "pause sent, count"
scalar MeshLAN.host[6].eth[0].encap pauseSent:sum 0
attr title "pause sent, sum"
scalar MeshLAN.host[6].eth[0].encap decapPk:count 313
attr interpolationmode none
attr source decapPk
attr title "packets decapsulated, count"
scalar MeshLAN.host[6].eth[0].encap decapPk:sum(packetBytes) 174964
attr interpolationmode none
attr source decapPk
attr title "packets decapsulated, sum(packetBytes)"
scalar MeshLAN.host[6].eth[0].encap encapPk:count 313
attr interpolationmode none
attr source encapPk
attr title "packets encapsulated, count"
scalar MeshLAN.host[6].eth[0].encap encapPk:sum(packetBytes) 174964
attr interpolationmode none
attr source encapPk
attr title "packets encapsulated, sum(packetBytes)"
scalar MeshLAN.host[6].pingApp[0] "Pings sent" 378
scalar MeshLAN.host[6].pingApp[0] "ping loss rate (%)" 0
scalar MeshLAN.host[6].pingApp[0] "ping out-of-order rate (%)" 0
scalar MeshLAN.host[6].pingApp[0] pingRxSeq:count 282
attr interpolationmode none
attr title "ping rx seq, count"
scalar MeshLAN.host[6].pingApp[0] pingTxSeq:count 282
attr interpolationmode none
attr title "ping tx seq, count"
scalar MeshLAN.host[6].pingApp[0] numOutOfOrderArrivals:last nan
attr interpolationmode none
attr title "ping out-of-order arrivals, last"
scalar MeshLAN.host[6].pingApp[0] numLost:last nan
attr interpolationmode none
attr title "pings lost, last"
scalar MeshLAN.host[6].pingApp[0] rtt:mean 0.00017799942857143
attr interpolationmode none
attr title "ping round-trip time, mean"
attr unit s
scalar MeshLAN.host[7].networkLayer.arp sentReply:count 0
attr title "ARP replies sent, count"
scalar MeshLAN.host[7].networkLayer.arp sentReq:count 0
attr title "ARP request sent, count"
scalar MeshLAN.host[7].networkLayer.arp failedARPResolution:count 0
attr title "ARP failed resolutions, count"
scalar MeshLAN.host[7].networkLayer.arp completedARPResolution:count 0
attr title "ARP completed resolutions, count"
scalar MeshLAN.host[7].networkLayer.arp initiatedARPResolution:count 0
attr title "ARP initiated resolutions, count"
scalar MeshLAN.host[7].lo0.lo droppedPkBitError:count 0
attr interpolationmode none
attr source dropPkBitError
attr title "packets dropped/bit error, count"
scalar MeshLAN.host[7].lo0.lo droppedPkBitError:sum(packetBytes) 0
attr interpolationmode none
attr source dropPkBitError
attr title "packets dropped/bit error, sum(packetBytes)"
scalar MeshLAN.host[7].lo0.lo rcvdPkFromHL:count 2
attr interpolationmode none
attr source packetReceivedFromUpper
attr title "packets received from higher layer, count"
scalar MeshLAN.host[7].lo0.lo rcvdPkFromHL:sum(packetBytes) 1898
attr interpolationmode none
attr source packetReceivedFromUpper
attr title "packets received from higher layer, sum(packetBytes)"
scalar MeshLAN.host[7].lo0.lo passedUpPk:count 2
attr interpolationmode none
attr source packetSentToUpper
attr title "packets passed to higher layer, count"
scalar MeshLAN.host[7].lo0.lo passedUpPk:sum(packetBytes) 1898
attr interpolationmode none
attr source packetSentToUpper
attr title "packets passed to higher layer, sum(packetBytes)"
scalar MeshLAN.host[7].eth[0].queue.pauseQueue queueLength:max nan
attr interpolationmode sample-hold
attr title "queue length, max"
scalar MeshLAN.host[7].eth[0].queue.pauseQueue queueLength:timeavg nan
attr interpolationmode sample-hold
attr title "queue length, timeavg"
statistic MeshLAN.host[7].eth[0].queue.pauseQueue queueingTime:histogram
field count 0
field mean nan
field stddev nan
field min nan
field max nan
field sum 0
field sqrsum 0
attr interpolationmode none
attr title "queueing time, histogram"
bin	-inf	0
bin	-0.5	0
bin	-0.46666666666667	0
bin	-0.43333333333333	0
bin	-0.4	0
bin	-0.36666666666667	0
bin	-0.33333333333333	0
bin	-0.3	0
bin	-0.26666666666667	0
bin	-0.23333333333333	0
bin	-0.2	0
bin	-0.16666666666667	0
bin	-0.13333333333333	0
bin	-0.1	0
bin	-0.066666666666667	0
bin	-0.033333333333333	0
bin	0	0
bin	0.033333333333333	0
bin	0.066666666666667	0
bin	0.1	0
bin	0.13333333333333	0
bin	0.16666666666667	0
bin	0.2	0
bin	0.23333333333333	0
bin	0.26666666666667	0
bin	0.3	0
bin	0.33333333333333	0
bin	0.36666666666667	0
bin	0.4	0
bin	0.43333333333333	0
bin	0.46666666666667	0
bin	0.5	0
scalar MeshLAN.host[7].eth[0].queue.pauseQueue dropPk:count 0
attr interpolationmode none
attr source dropPkByQueue
attr title "dropped packets, count"
scalar MeshLAN.host[7].eth[0].queue.pauseQueue dropPk:sum(packetBytes) 0
attr interpolationmode none
attr source dropPkByQueue
attr title "dropped packets, sum(packetBytes)"
scalar MeshLAN.host[7].eth[0].queue.pauseQueue rcvdPk:count 0
attr interpolationmode none
attr title "received packets, count"
scalar MeshLAN.host[7].eth[0].queue.pauseQueue rcvdPk:sum(packetBytes) 0
attr interpolationmode none
attr title "received packets, sum(packetBytes)"
scalar MeshLAN.host[7].eth[0].queue.dataQueue queueLength:max 1
attr interpolationmode sample-hold
attr title "queue length, max"
scalar MeshLAN.host[7].eth[0].queue.dataQueue queueLength:timeavg 6.7870971673938e-005
attr interpolationmode sample-hold
attr title "queue length, timeavg"
statistic MeshLAN.host[7].eth[0].queue.dataQueue queueingTime:histogram
field count 336
field mean 3.0228571428571e-006
field stddev 1.5730652618768e-005
field min 0
field max 8.464e-005
field sum 0.00101568
field sqrsum 8.59671552e-008
attr interpolationmode none
attr title "queueing time, histogram"
bin	-inf	0
bin	-4.232e-005	0
bin	-3.6677333333333e-005	0
bin	-3.1034666666667e-005	0
bin	-2.5392e-005	0
bin	-1.9749333333333e-005	0
bin	-1.4106666666667e-005	0
bin	-8.464e-006	0
bin	-2.8213333333333e-006	324
bin	2.8213333333333e-006	0
bin	8.464e-006	0
bin	1.4106666666667e-005	0
bin	1.9749333333333e-005	0
bin	2.5392e-005	0
bin	3.1034666666667e-005	0
bin	3.6677333333333e-005	0
bin	4.232e-005	0
bin	4.7962666666667e-005	0
bin	5.3605333333333e-005	0
bin	5.9248e-005	0
bin	6.4890666666667e-005	0
bin	7.0533333333333e-005	0
bin	7.6176e-005	0
bin	8.1818666666667e-005	12
bin	8.7461333333333e-005	0
bin	9.3104e-005	0
bin	9.8746666666667e-005	0
bin	0.00010438933333333	0
bin	0.000110032	0
bin	0.00011567466666667	0
bin	0.00012131733333333	0
bin	0.00012696	0
scalar MeshLAN.host[7].eth[0].queue.dataQueue dropPk:count 0
attr interpolationmode none
attr source dropPkByQueue
attr title "dropped packets, count"
scalar MeshLAN.host[7].eth[0].queue.dataQueue dropPk:sum(packetBytes) 0
attr interpolationmode none
attr source dropPkByQueue
attr title "dropped packets, sum(packetBytes)"
scalar MeshLAN.host[7].eth[0].queue.dataQueue rcvdPk:count 336
attr interpolationmode none
attr title "received packets, count"
scalar MeshLAN.host[7].eth[0].queue.dataQueue rcvdPk:sum(packetBytes) 317027
attr interpolationmode none
attr title "received packets, sum(packetBytes)"
scalar MeshLAN.host[7].eth[0].mac "simulated time" 20
scalar MeshLAN.host[7].eth[0].mac full-duplex 1
scalar MeshLAN.host[7].eth[0].mac "frames/sec sent" 23.15
scalar MeshLAN.host[7].eth[0].mac "frames/sec rcvd" 23.15
scalar MeshLAN.host[7].eth[0].mac "bits/sec sent" 174066.8
scalar MeshLAN.host[7].eth[0].mac "bits/sec rcvd" 174066.8
scalar MeshLAN.host[7].eth[0].mac "rx channel idle (%)" 99.8244516
scalar MeshLAN.host[7].eth[0].mac "rx channel utilization (%)" 0.1755484
scalar MeshLAN.host[7].eth[0].mac rxPkFromHL:count 336
attr interpolationmode none
attr source rxPkFromHL
attr title "packet bytes from higher layer, count"
scalar MeshLAN.host[7].eth[0].mac rxPkFromHL:sum(packetBytes) 317027
attr interpolationmode none
attr source rxPkFromHL
attr title "packet bytes from higher layer, sum(packetBytes)"
scalar MeshLAN.host[7].eth[0].mac rxPausePkUnits:count 0
attr interpolationmode none
attr title "pause units received, count"
scalar MeshLAN.host[7].eth[0].mac rxPausePkUnits:sum 0
attr interpolationmode none
attr title "pause units received, sum"
scalar MeshLAN.host[7].eth[0].mac txPausePkUnits:count 0
attr interpolationmode none
attr title "pause units sent, count"
scalar MeshLAN.host[7].eth[0].mac txPausePkUnits:sum 0
attr interpolationmode none
attr title "pause units sent, sum"
scalar MeshLAN.host[7].eth[0].mac txPk:count 336
attr interpolationmode none
attr source txPk
attr title "packets transmitted, count"
scalar MeshLAN.host[7].eth[0].mac txPk:sum(packetBytes) 317027
attr interpolationmode none
attr source txPk
attr title "packets transmitted, sum(packetBytes)"
scalar MeshLAN.host[7].eth[0].mac droppedPkNotForUs:count 0
attr interpolationmode none
attr source dropPkNotForUs
attr title "packets dropped/not for us, count"
scalar MeshLAN.host[7].eth[0].mac droppedPkNotForUs:sum(packetBytes) 0
attr interpolationmode none
attr source dropPkNotForUs
attr title "packets dropped/not for us, sum(packetBytes)"
scalar MeshLAN.host[7].eth[0].mac droppedPkBitError:count 0
attr interpolationmode none
attr source dropPkBitError
attr title "packets dropped/bit error, count"
scalar MeshLAN.host[7].eth[0].mac droppedPkBitError:sum(packetBytes) 0
attr interpolationmode none
attr source dropPkBitError
attr title "packets dropped/bit error, sum(packetBytes)"
scalar MeshLAN.host[7].eth[0].mac droppedPkIfaceDown:count 0
attr interpolationmode none
attr source dropPkIfaceDown
attr title "packets dropped/interface down, count"
scalar MeshLAN.host[7].eth[0].mac droppedPkIfaceDown:sum(packetBytes) 0
attr interpolationmode none
attr source dropPkIfaceDown
attr title "packets dropped/interface down, sum(packetBytes)"
scalar MeshLAN.host[7].eth[0].mac rxPkOk:count 336
attr interpolationmode none
attr source rxPkOk
attr title "packets received OK, count"
scalar MeshLAN.host[7].eth[0].mac rxPkOk:sum(packetBytes) 317027
attr interpolationmode none
attr source rxPkOk
attr title "packets received OK, sum(packetBytes)"
scalar MeshLAN.host[7].eth[0].mac passedUpPk:count 336
attr interpolationmode none
attr source packetSentToUpper
attr title "packets passed to higher layer, count"
scalar MeshLAN.host[7].eth[0].mac passedUpPk:sum(packetBytes) 317027
attr interpolationmode none
attr source packetSentToUpper
[...]
attr interpolationmode none
attr title "received packets, count"
scalar MeshLAN.router[9].eth[7].queue.dataQueue rcvdPk:sum(packetBytes) 53314
attr interpolationmode none
attr title "received packets, sum(packetBytes)"
scalar MeshLAN.router[9].eth[7].mac "simulated time" 20
scalar MeshLAN.router[9].eth[7].mac full-duplex 1
scalar MeshLAN.router[9].eth[7].mac "frames/sec sent" 4.6
scalar MeshLAN.router[9].eth[7].mac "frames/sec rcvd" 4.6
scalar MeshLAN.router[9].eth[7].mac "bits/sec sent" 26238
scalar MeshLAN.router[9].eth[7].mac "bits/sec rcvd" 26238
scalar MeshLAN.router[9].eth[7].mac "rx channel idle (%)" 99.9734676
scalar MeshLAN.router[9].eth[7].mac "rx channel utilization (%)" 0.0265324
scalar MeshLAN.router[9].eth[7].mac rxPkFromHL:count 74
attr interpolationmode none
attr source rxPkFromHL
attr title "packet bytes from higher layer, count"
scalar MeshLAN.router[9].eth[7].mac rxPkFromHL:sum(packetBytes) 53314
attr interpolationmode none
attr source rxPkFromHL
attr title "packet bytes from higher layer, sum(packetBytes)"
scalar MeshLAN.router[9].eth[7].mac rxPausePkUnits:count 0
attr interpolationmode none
attr title "pause units received, count"
scalar MeshLAN.router[9].eth[7].mac rxPausePkUnits:sum 0
attr interpolationmode none
attr title "pause units received, sum"
scalar MeshLAN.router[9].eth[7].mac txPausePkUnits:count 0
attr interpolationmode none
attr title "pause units sent, count"
scalar MeshLAN.router[9].eth[7].mac txPausePkUnits:sum 0
attr interpolationmode none
attr title "pause units sent, sum"
scalar MeshLAN.router[9].eth[7].mac txPk:count 74
attr interpolationmode none
attr source txPk
attr title "packets transmitted, count"
scalar MeshLAN.router[9].eth[7].mac txPk:sum(packetBytes) 53314
attr interpolationmode none
attr source txPk
attr title "packets transmitted, sum(packetBytes)"
scalar MeshLAN.router[9].eth[7].mac droppedPkNotForUs:count 0
attr interpolationmode none
attr source dropPkNotForUs
attr title "packets dropped/not for us, count"
scalar MeshLAN.router[9].eth[7].mac droppedPkNotForUs:sum(packetBytes) 0
attr interpolationmode none
attr source dropPkNotForUs
attr title "packets dropped/not for us, sum(packetBytes)"
scalar MeshLAN.router[9].eth[7].mac droppedPkBitError:count 0
attr interpolationmode none
attr source dropPkBitError
attr title "packets dropped/bit error, count"
scalar MeshLAN.router[9].eth[7].mac droppedPkBitError:sum(packetBytes) 0
attr interpolationmode none
attr source dropPkBitError
attr title "packets dropped/bit error, sum(packetBytes)"
scalar MeshLAN.router[9].eth[7].mac droppedPkIfaceDown:count 0
attr interpolationmode none
attr source dropPkIfaceDown
attr title "packets dropped/interface down, count"
scalar MeshLAN.router[9].eth[7].mac droppedPkIfaceDown:sum(packetBytes) 0
attr interpolationmode none
attr source dropPkIfaceDown
attr title "packets dropped/interface down, sum(packetBytes)"
scalar MeshLAN.router[9].eth[7].mac rxPkOk:count 74
attr interpolationmode none
attr source rxPkOk
attr title "packets received OK, count"
scalar MeshLAN.router[9].eth[7].mac rxPkOk:sum(packetBytes) 53314
attr interpolationmode none
attr source rxPkOk
attr title "packets received OK, sum(packetBytes)"
scalar MeshLAN.router[9].eth[7].mac passedUpPk:count 74
attr interpolationmode none
attr source packetSentToUpper
attr title "packets passed to higher layer, count"
scalar MeshLAN.router[9].eth[7].mac passedUpPk:sum(packetBytes) 53314
attr interpolationmode none
attr source packetSentToUpper
attr title "packets passed to higher layer, sum(packetBytes)"
scalar MeshLAN.router[9].eth[7].encap pauseSent:count 0
attr title "pause sent, count"
scalar MeshLAN.router[9].eth[7].encap pauseSent:sum 0
attr title "pause sent, sum"
scalar MeshLAN.router[9].eth[7].encap decapPk:count 74
attr interpolationmode none
attr source decapPk
attr title "packets decapsulated, count"
scalar MeshLAN.router[9].eth[7].encap decapPk:sum(packetBytes) 51982
attr interpolationmode none
attr source decapPk
attr title "packets decapsulated, sum(packetBytes)"
scalar MeshLAN.router[9].eth[7].encap encapPk:count 74
attr interpolationmode none
attr source encapPk
attr title "packets encapsulated, count"
scalar MeshLAN.router[9].eth[7].encap encapPk:sum(packetBytes) 51982
attr interpolationmode none
attr source encapPk
attr title "packets encapsulated, sum(packetBytes)"
scalar MeshLAN.router[9].eth[8].queue.pauseQueue queueLength:max nan
attr interpolationmode sample-hold
attr title "queue length, max"
scalar MeshLAN.router[9].eth[8].queue.pauseQueue queueLength:timeavg nan
attr interpolationmode sample-hold
attr title "queue length, timeavg"
statistic MeshLAN.router[9].eth[8].queue.pauseQueue queueingTime:histogram
field count 0
field mean nan
field stddev nan
field min nan
field max nan
field sum 0
field sqrsum 0
attr interpolationmode none
attr title "queueing time, histogram"
bin	-inf	0
bin	-0.5	0
bin	-0.46666666666667	0
bin	-0.43333333333333	0
bin	-0.4	0
bin	-0.36666666666667	0
bin	-0.33333333333333	0
bin	-0.3	0
bin	-0.26666666666667	0
bin	-0.23333333333333	0
bin	-0.2	0
bin	-0.16666666666667	0
bin	-0.13333333333333	0
bin	-0.1	0
bin	-0.066666666666667	0
bin	-0.033333333333333	0
bin	0	0
bin	0.033333333333333	0
bin	0.066666666666667	0
bin	0.1	0
bin	0.13333333333333	0
bin	0.16666666666667	0
bin	0.2	0
bin	0.23333333333333	0
bin	0.26666666666667	0
bin	0.3	0
bin	0.33333333333333	0
bin	0.36666666666667	0
bin	0.4	0
bin	0.43333333333333	0
bin	0.46666666666667	0
bin	0.5	0
scalar MeshLAN.router[9].eth[8].queue.pauseQueue dropPk:count 0
attr interpolationmode none
attr source dropPkByQueue
attr title "dropped packets, count"
scalar MeshLAN.router[9].eth[8].queue.pauseQueue dropPk:sum(packetBytes) 0
attr interpolationmode none
attr source dropPkByQueue
attr title "dropped packets, sum(packetBytes)"
scalar MeshLAN.router[9].eth[8].queue.pauseQueue rcvdPk:count 0
attr interpolationmode none
attr title "received packets, count"
scalar MeshLAN.router[9].eth[8].queue.pauseQueue rcvdPk:sum(packetBytes) 0
attr interpolationmode none
attr title "received packets, sum(packetBytes)"
scalar MeshLAN.router[9].eth[8].queue.dataQueue queueLength:max 1
attr interpolationmode sample-hold
attr title "queue length, max"
scalar MeshLAN.router[9].eth[8].queue.dataQueue queueLength:timeavg 5.7044391772744e-005
attr interpolationmode sample-hold
attr title "queue length, timeavg"
statistic MeshLAN.router[9].eth[8].queue.dataQueue queueingTime:histogram
field count 76
field mean 1.1056842105263e-005
field stddev 1.5434963272651e-005
field min 0
field max 3.232e-005
field sum 0.00084032
field sqrsum 2.71591424e-008
attr interpolationmode none
attr title "queueing time, histogram"
bin	-inf	0
bin	-1.616e-005	0
bin	-1.4005333333333e-005	0
bin	-1.1850666666667e-005	0
bin	-9.696e-006	0
bin	-7.5413333333333e-006	0
bin	-5.3866666666667e-006	0
bin	-3.232e-006	0
bin	-1.0773333333333e-006	50
bin	1.0773333333333e-006	0
bin	3.232e-006	0
bin	5.3866666666667e-006	0
bin	7.5413333333333e-006	0
bin	9.696e-006	0
bin	1.1850666666667e-005	0
bin	1.4005333333333e-005	0
bin	1.616e-005	0
bin	1.8314666666667e-005	0
bin	2.0469333333333e-005	0
bin	2.2624e-005	0
bin	2.4778666666667e-005	0
bin	2.6933333333333e-005	0
bin	2.9088e-005	0
bin	3.1242666666667e-005	26
bin	3.3397333333333e-005	0
bin	3.5552e-005	0
bin	3.7706666666667e-005	0
bin	3.9861333333333e-005	0
bin	4.2016e-005	0
bin	4.4170666666667e-005	0
bin	4.6325333333333e-005	0
bin	4.848e-005	0
scalar MeshLAN.router[9].eth[8].queue.dataQueue dropPk:count 0
attr interpolationmode none
attr source dropPkByQueue
attr title "dropped packets, count"
scalar MeshLAN.router[9].eth[8].queue.dataQueue dropPk:sum(packetBytes) 0
attr interpolationmode none
attr source dropPkByQueue
attr title "dropped packets, sum(packetBytes)"
scalar MeshLAN.router[9].eth[8].queue.dataQueue rcvdPk:count 76
attr interpolationmode none
attr title "received packets, count"
scalar MeshLAN.router[9].eth[8].queue.dataQueue rcvdPk:sum(packetBytes) 66680
attr interpolationmode none
attr title "received packets, sum(packetBytes)"
scalar MeshLAN.router[9].eth[8].mac "simulated time" 20
scalar MeshLAN.router[9].eth[8].mac full-duplex 1
scalar MeshLAN.router[9].eth[8].mac "frames/sec sent" 5.9
scalar MeshLAN.router[9].eth[8].mac "frames/sec rcvd" 5.9
scalar MeshLAN.router[9].eth[8].mac "bits/sec sent" 41194
scalar MeshLAN.router[9].eth[8].mac "bits/sec rcvd" 41194
scalar MeshLAN.router[9].eth[8].mac "rx channel idle (%)" 99.9584284
scalar MeshLAN.router[9].eth[8].mac "rx channel utilization (%)" 0.0415716
scalar MeshLAN.router[9].eth[8].mac rxPkFromHL:count 76
attr interpolationmode none
attr source rxPkFromHL
attr title "packet bytes from higher layer, count"
scalar MeshLAN.router[9].eth[8].mac rxPkFromHL:sum(packetBytes) 66680
attr interpolationmode none
attr source rxPkFromHL
attr title "packet bytes from higher layer, sum(packetBytes)"
scalar MeshLAN.router[9].eth[8].mac rxPausePkUnits:count 0
attr interpolationmode none
attr title "pause units received, count"
scalar MeshLAN.router[9].eth[8].mac rxPausePkUnits:sum 0
attr interpolationmode none
attr title "pause units received, sum"
scalar MeshLAN.router[9].eth[8].mac txPausePkUnits:count 0
attr interpolationmode none
attr title "pause units sent, count"
scalar MeshLAN.router[9].eth[8].mac txPausePkUnits:sum 0
attr interpolationmode none
attr title "pause units sent, sum"
scalar MeshLAN.router[9].eth[8].mac txPk:count 76
attr interpolationmode none
attr source txPk
attr title "packets transmitted, count"
scalar MeshLAN.router[9].eth[8].mac txPk:sum(packetBytes) 66680
attr interpolationmode none
attr source txPk
attr title "packets transmitted, sum(packetBytes)"
scalar MeshLAN.router[9].eth[8].mac droppedPkNotForUs:count 0
attr interpolationmode none
attr source dropPkNotForUs
attr title "packets dropped/not for us, count"
scalar MeshLAN.router[9].eth[8].mac droppedPkNotForUs:sum(packetBytes) 0
attr interpolationmode none
attr source dropPkNotForUs
attr title "packets dropped/not for us, sum(packetBytes)"
scalar MeshLAN.router[9].eth[8].mac droppedPkBitError:count 0
attr interpolationmode none
attr source dropPkBitError
attr title "packets dropped/bit error, count"
scalar MeshLAN.router[9].eth[8].mac droppedPkBitError:sum(packetBytes) 0
attr interpolationmode none
attr source dropPkBitError
attr title "packets dropped/bit error, sum(packetBytes)"
scalar MeshLAN.router[9].eth[8].mac droppedPkIfaceDown:count 0
attr interpolationmode none
attr source dropPkIfaceDown
attr title "packets dropped/interface down, count"
scalar MeshLAN.router[9].eth[8].mac droppedPkIfaceDown:sum(packetBytes) 0
attr interpolationmode none
attr source dropPkIfaceDown
attr title "packets dropped/interface down, sum(packetBytes)"
scalar MeshLAN.router[9].eth[8].mac rxPkOk:count 76
attr interpolationmode none
attr source rxPkOk
attr title "packets received OK, count"
scalar MeshLAN.router[9].eth[8].mac rxPkOk:sum(packetBytes) 66680
attr interpolationmode none
attr source rxPkOk
attr title "packets received OK, sum(packetBytes)"
scalar MeshLAN.router[9].eth[8].mac passedUpPk:count 76
attr interpolationmode none
attr source packetSentToUpper
attr title "packets passed to higher layer, count"
scalar MeshLAN.router[9].eth[8].mac passedUpPk:sum(packetBytes) 66680
attr interpolationmode none
attr source packetSentToUpper
attr title "packets passed to higher layer, sum(packetBytes)"
scalar MeshLAN.router[9].eth[8].encap pauseSent:count 0
attr title "pause sent, count"
scalar MeshLAN.router[9].eth[8].encap pauseSent:sum 0
attr title "pause sent, sum"
scalar MeshLAN.router[9].eth[8].encap decapPk:count 76
attr interpolationmode none
attr source decapPk
attr title "packets decapsulated, count"
scalar MeshLAN.router[9].eth[8].encap decapPk:sum(packetBytes) 65312
attr interpolationmode none
attr source decapPk
attr title "packets decapsulated, sum(packetBytes)"
scalar MeshLAN.router[9].eth[8].encap encapPk:count 76
attr interpolationmode none
attr source encapPk
attr title "packets encapsulated, count"
scalar MeshLAN.router[9].eth[8].encap encapPk:sum(packetBytes) 65312
attr interpolationmode none
attr source encapPk
attr title "packets encapsulated, sum(packetBytes)"
scalar MeshLAN.router[9].eth[9].queue.pauseQueue queueLength:max nan
attr interpolationmode sample-hold
attr title "queue length, max"
scalar MeshLAN.router[9].eth[9].queue.pauseQueue queueLength:timeavg nan
attr interpolationmode sample-hold
attr title "queue length, timeavg"
statistic MeshLAN.router[9].eth[9].queue.pauseQueue queueingTime:histogram
field count 0
field mean nan
field stddev nan
field min nan
field max nan
field sum 0
field sqrsum 0
attr interpolationmode none
attr title "queueing time, histogram"
bin	-inf	0
bin	-0.5	0
bin	-0.46666666666667	0
bin	-0.43333333333333	0
bin	-0.4	0
bin	-0.36666666666667	0
bin	-0.33333333333333	0
bin	-0.3	0
bin	-0.26666666666667	0
bin	-0.23333333333333	0
bin	-0.2	0
bin	-0.16666666666667	0
bin	-0.13333333333333	0
bin	-0.1	0
bin	-0.066666666666667	0
bin	-0.033333333333333	0
bin	0	0
bin	0.033333333333333	0
bin	0.066666666666667	0
bin	0.1	0
bin	0.13333333333333	0
bin	0.16666666666667	0
bin	0.2	0
bin	0.23333333333333	0
bin	0.26666666666667	0
bin	0.3	0
bin	0.33333333333333	0
bin	0.36666666666667	0
bin	0.4	0
bin	0.43333333333333	0
bin	0.46666666666667	0
bin	0.5	0
scalar MeshLAN.router[9].eth[9].queue.pauseQueue dropPk:count 0
attr interpolationmode none
attr source dropPkByQueue
attr title "dropped packets, count"
scalar MeshLAN.router[9].eth[9].queue.pauseQueue dropPk:sum(packetBytes) 0
attr interpolationmode none
attr source dropPkByQueue
attr title "dropped packets, sum(packetBytes)"
scalar MeshLAN.router[9].eth[9].queue.pauseQueue rcvdPk:count 0
attr interpolationmode none
attr title "received packets, count"
scalar MeshLAN.router[9].eth[9].queue.pauseQueue rcvdPk:sum(packetBytes) 0
attr interpolationmode none
attr title "received packets, sum(packetBytes)"
scalar MeshLAN.router[9].eth[9].queue.dataQueue queueLength:max 1
attr interpolationmode sample-hold
attr title "queue length, max"
scalar MeshLAN.router[9].eth[9].queue.dataQueue queueLength:timeavg 6.7501976243139e-005
attr interpolationmode sample-hold
attr title "queue length, timeavg"
statistic MeshLAN.router[9].eth[9].queue.dataQueue queueingTime:histogram
field count 91
field mean 1.101010989011e-005
field stddev 1.5402310468419e-005
field min 0
field max 3.232e-005
field sum 0.00100192
field sqrsum 3.23820544e-008
attr interpolationmode none
attr title "queueing time, histogram"
bin	-inf	0
bin	-1.616e-005	0
bin	-1.4005333333333e-005	0
bin	-1.1850666666667e-005	0
bin	-9.696e-006	0
bin	-7.5413333333333e-006	0
bin	-5.3866666666667e-006	0
bin	-3.232e-006	0
bin	-1.0773333333333e-006	60
bin	1.0773333333333e-006	0
bin	3.232e-006	0
bin	5.3866666666667e-006	0
bin	7.5413333333333e-006	0
bin	9.696e-006	0
bin	1.1850666666667e-005	0
bin	1.4005333333333e-005	0
bin	1.616e-005	0
bin	1.8314666666667e-005	0
bin	2.0469333333333e-005	0
bin	2.2624e-005	0
bin	2.4778666666667e-005	0
bin	2.6933333333333e-005	0
bin	2.9088e-005	0
bin	3.1242666666667e-005	31
bin	3.3397333333333e-005	0
bin	3.5552e-005	0
bin	3.7706666666667e-005	0
bin	3.9861333333333e-005	0
bin	4.2016e-005	0
bin	4.4170666666667e-005	0
bin	4.6325333333333e-005	0
bin	4.848e-005	0
scalar MeshLAN.router[9].eth[9].queue.dataQueue dropPk:count 0
attr interpolationmode none
attr source dropPkByQueue
attr title "dropped packets, count"
scalar MeshLAN.router[9].eth[9].queue.dataQueue dropPk:sum(packetBytes) 0
attr interpolationmode none
attr source dropPkByQueue
attr title "dropped packets, sum(packetBytes)"
scalar MeshLAN.router[9].eth[9].queue.dataQueue rcvdPk:count 91
attr interpolationmode none
attr title "received packets, count"
scalar MeshLAN.router[9].eth[9].queue.dataQueue rcvdPk:sum(packetBytes) 80803
attr interpolationmode none
attr title "received packets, sum(packetBytes)"
scalar MeshLAN.router[9].eth[9].mac "simulated time" 20
scalar MeshLAN.router[9].eth[9].mac full-duplex 1
scalar MeshLAN.router[9].eth[9].mac "frames/sec sent" 6.75
scalar MeshLAN.router[9].eth[9].mac "frames/sec rcvd" 6.75
scalar MeshLAN.router[9].eth[9].mac "bits/sec sent" 47443.2
scalar MeshLAN.router[9].eth[9].mac "bits/sec rcvd" 47443.2
scalar MeshLAN.router[9].eth[9].mac "rx channel idle (%)" 99.9521248
scalar MeshLAN.router[9].eth[9].mac "rx channel utilization (%)" 0.0478752
scalar MeshLAN.router[9].eth[9].mac rxPkFromHL:count 91
attr interpolationmode none
attr source rxPkFromHL
attr title "packet bytes from higher layer, count"
scalar MeshLAN.router[9].eth[9].mac rxPkFromHL:sum(packetBytes) 80803
attr interpolationmode none
attr source rxPkFromHL
attr title "packet bytes from higher layer, sum(packetBytes)"
scalar MeshLAN.router[9].eth[9].mac rxPausePkUnits:count 0
attr interpolationmode none
attr title "pause units received, count"
scalar MeshLAN.router[9].eth[9].mac rxPausePkUnits:sum 0
attr interpolationmode none
attr title "pause units received, sum"
scalar MeshLAN.router[9].eth[9].mac txPausePkUnits:count 0
attr interpolationmode none
attr title "pause units sent, count"
scalar MeshLAN.router[9].eth[9].mac txPausePkUnits:sum 0
attr interpolationmode none
attr title "pause units sent, sum"
scalar MeshLAN.router[9].eth[9].mac txPk:count 91
attr interpolationmode none
attr source txPk
attr title "packets transmitted, count"
scalar MeshLAN.router[9].eth[9].mac txPk:sum(packetBytes) 80803
attr interpolationmode none
attr source txPk
attr title "packets transmitted, sum(packetBytes)"
scalar MeshLAN.router[9].eth[9].mac droppedPkNotForUs:count 0
attr interpolationmode none
attr source dropPkNotForUs
attr title "packets dropped/not for us, count"
scalar MeshLAN.router[9].eth[9].mac droppedPkNotForUs:sum(packetBytes) 0
attr interpolationmode none
attr source dropPkNotForUs
attr title "packets dropped/not for us, sum(packetBytes)"
scalar MeshLAN.router[9].eth[9].mac droppedPkBitError:count 0
attr interpolationmode none
attr source dropPkBitError
attr title "packets dropped/bit error, count"
scalar MeshLAN.router[9].eth[9].mac droppedPkBitError:sum(packetBytes) 0
attr interpolationmode none
attr source dropPkBitError
attr title "packets dropped/bit error, sum(packetBytes)"
scalar MeshLAN.router[9].eth[9].mac droppedPkIfaceDown:count 0
attr interpolationmode none
attr source dropPkIfaceDown
attr title "packets dropped/interface down, count"
scalar MeshLAN.router[9].eth[9].mac droppedPkIfaceDown:sum(packetBytes) 0
attr interpolationmode none
attr source dropPkIfaceDown
attr title "packets dropped/interface down, sum(packetBytes)"
scalar MeshLAN.router[9].eth[9].mac rxPkOk:count 91
attr interpolationmode none
attr source rxPkOk
attr title "packets received OK, count"
scalar MeshLAN.router[9].eth[9].mac rxPkOk:sum(packetBytes) 80803
attr interpolationmode none
attr source rxPkOk
attr title "packets received OK, sum(packetBytes)"
scalar MeshLAN.router[9].eth[9].mac passedUpPk:count 91
attr interpolationmode none
attr source packetSentToUpper
attr title "packets passed to higher layer, count"
scalar MeshLAN.router[9].eth[9].mac passedUpPk:sum(packetBytes) 80803
attr interpolationmode none
attr source packetSentToUpper
attr title "packets passed to higher layer, sum(packetBytes)"
scalar MeshLAN.router[9].eth[9].encap pauseSent:count 0
attr title "pause sent, count"
scalar MeshLAN.router[9].eth[9].encap pauseSent:sum 0
attr title "pause sent, sum"
scalar MeshLAN.router[9].eth[9].encap decapPk:count 91
attr interpolationmode none
attr source decapPk
attr title "packets decapsulated, count"
scalar MeshLAN.router[9].eth[9].encap decapPk:sum(packetBytes) 79165
attr interpolationmode none
attr source decapPk
attr title "packets decapsulated, sum(packetBytes)"
scalar MeshLAN.router[9].eth[9].encap encapPk:count 91
attr interpolationmode none
attr source encapPk
attr title "packets encapsulated, count"
scalar MeshLAN.router[9].eth[9].encap encapPk:sum(packetBytes) 79165
attr interpolationmode none
attr source encapPk
attr title "packets encapsulated, sum(packetBytes)"

