version 2
run StarLAN10-datarate-1-20180110-19:18:29-10480
attr configname StarLAN10-datarate
attr datetime 20180110-19:18:29
attr experiment StarLAN10-datarate
attr inifile StarLAN.ini
attr iterationvars $pa=16
attr iterationvarsf pa=16-
attr measurement $pa=16
attr network StarLAN
attr processid 10480
attr repetition 0
attr replication #0
attr resultdir results
attr runnumber 1
attr seedset 1
itervar pa 16
param *.numHosts 10
param **.datarate 100Mbps
param **.host[*].pingApp[*].sendInterval "truncnormal(50ms, 25ms)"
param **.host[*].pingApp[*].packetSize "truncnormal(1024B, 512B)"
param **.queueType "\"DropTailQueue\""
param **.frameCapacity 10
param **.mtu 1024B
param **.host[*].numPingApps 16
param **.host[*].pingApp[*].typename "\"PingApp\""
param **.host[*].pingApp[*].count 1
param **.host[*].pingApp[*].startTime "truncnormal(200ms, 100ms)"
param **.host[*].pingApp[*].destAddr "\"*\""

scalar StarLAN.host[0].networkLayer.arp sentReply:count 0
attr title "ARP replies sent, count"
scalar StarLAN.host[0].networkLayer.arp sentReq:count 0
attr title "ARP request sent, count"
scalar StarLAN.host[0].networkLayer.arp failedARPResolution:count 0
attr title "ARP failed resolutions, count"
scalar StarLAN.host[0].networkLayer.arp completedARPResolution:count 0
attr title "ARP completed resolutions, count"
scalar StarLAN.host[0].networkLayer.arp initiatedARPResolution:count 0
attr title "ARP initiated resolutions, count"
scalar StarLAN.host[0].lo0.lo droppedPkBitError:count 0
attr interpolationmode none
attr source dropPkBitError
attr title "packets dropped/bit error, count"
scalar StarLAN.host[0].lo0.lo droppedPkBitError:sum(packetBytes) 0
attr interpolationmode none
attr source dropPkBitError
attr title "packets dropped/bit error, sum(packetBytes)"
scalar StarLAN.host[0].lo0.lo rcvdPkFromHL:count 1492
attr interpolationmode none
attr source packetReceivedFromUpper
attr title "packets received from higher layer, count"
scalar StarLAN.host[0].lo0.lo rcvdPkFromHL:sum(packetBytes) 1081536
attr interpolationmode none
attr source packetReceivedFromUpper
attr title "packets received from higher layer, sum(packetBytes)"
scalar StarLAN.host[0].lo0.lo passedUpPk:count 1492
attr interpolationmode none
attr source packetSentToUpper
attr title "packets passed to higher layer, count"
scalar StarLAN.host[0].lo0.lo passedUpPk:sum(packetBytes) 1081536
attr interpolationmode none
attr source packetSentToUpper
attr title "packets passed to higher layer, sum(packetBytes)"
scalar StarLAN.host[0].eth[0].queue.pauseQueue queueLength:max nan
attr interpolationmode sample-hold
attr title "queue length, max"
scalar StarLAN.host[0].eth[0].queue.pauseQueue queueLength:timeavg nan
attr interpolationmode sample-hold
attr title "queue length, timeavg"
statistic StarLAN.host[0].eth[0].queue.pauseQueue queueingTime:histogram
field count 0
field mean nan
field stddev nan
field min nan
field max nan
field sum 0
field sqrsum 0
attr interpolationmode none
attr title "queueing time, histogram"
bin	-inf	0
bin	-0.5	0
bin	-0.46666666666667	0
bin	-0.43333333333333	0
bin	-0.4	0
bin	-0.36666666666667	0
bin	-0.33333333333333	0
bin	-0.3	0
bin	-0.26666666666667	0
bin	-0.23333333333333	0
bin	-0.2	0
bin	-0.16666666666667	0
bin	-0.13333333333333	0
bin	-0.1	0
bin	-0.066666666666667	0
bin	-0.033333333333333	0
bin	0	0
bin	0.033333333333333	0
bin	0.066666666666667	0
bin	0.1	0
bin	0.13333333333333	0
bin	0.16666666666667	0
bin	0.2	0
bin	0.23333333333333	0
bin	0.26666666666667	0
bin	0.3	0
bin	0.33333333333333	0
bin	0.36666666666667	0
bin	0.4	0
bin	0.43333333333333	0
bin	0.46666666666667	0
bin	0.5	0
scalar StarLAN.host[0].eth[0].queue.pauseQueue dropPk:count 0
attr interpolationmode none
attr source dropPkByQueue
attr title "dropped packets, count"
scalar StarLAN.host[0].eth[0].queue.pauseQueue dropPk:sum(packetBytes) 0
attr interpolationmode none
attr source dropPkByQueue
attr title "dropped packets, sum(packetBytes)"
scalar StarLAN.host[0].eth[0].queue.pauseQueue rcvdPk:count 0
attr interpolationmode none
attr title "received packets, count"
scalar StarLAN.host[0].eth[0].queue.pauseQueue rcvdPk:sum(packetBytes) 0
attr interpolationmode none
attr title "received packets, sum(packetBytes)"
scalar StarLAN.host[0].eth[0].queue.dataQueue queueLength:max 4
attr interpolationmode sample-hold
attr title "queue length, max"
scalar StarLAN.host[0].eth[0].queue.dataQueue queueLength:timeavg 0.030391894351176
attr interpolationmode sample-hold
attr title "queue length, timeavg"
statistic StarLAN.host[0].eth[0].queue.dataQueue queueingTime:histogram
field count 13139
field mean 3.4690170070861e-005
field stddev 4.5843877465551e-005
field min 0
field max 0.000276130336
field sum 0.45579414456104
field sqrsum 4.3423199938067e-005
attr interpolationmode none
attr title "queueing time, histogram"
bin	-inf	0
bin	-0.00011596	0
bin	-0.00010049866666667	0
bin	-8.5037333333333e-005	0
bin	-6.9576e-005	0
bin	-5.4114666666667e-005	0
bin	-3.8653333333333e-005	0
bin	-2.3192e-005	0
bin	-7.7306666666667e-006	7976
bin	7.7306666666667e-006	68
bin	2.3192e-005	76
bin	3.8653333333333e-005	59
bin	5.4114666666667e-005	58
bin	6.9576e-005	4397
bin	8.5037333333333e-005	65
bin	0.00010049866666667	75
bin	0.00011596	41
bin	0.00013142133333333	32
bin	0.00014688266666667	29
bin	0.000162344	214
bin	0.00017780533333333	21
bin	0.00019326666666667	14
bin	0.000208728	4
bin	0.00022418933333333	5
bin	0.00023965066666667	1
bin	0.000255112	3
bin	0.00027057333333333	1
bin	0.00028603466666667	0
bin	0.000301496	0
bin	0.00031695733333333	0
bin	0.00033241866666667	0
bin	0.00034788	0
scalar StarLAN.host[0].eth[0].queue.dataQueue dropPk:count 0
attr interpolationmode none
attr source dropPkByQueue
attr title "dropped packets, count"
scalar StarLAN.host[0].eth[0].queue.dataQueue dropPk:sum(packetBytes) 0
attr interpolationmode none
attr source dropPkByQueue
attr title "dropped packets, sum(packetBytes)"
scalar StarLAN.host[0].eth[0].queue.dataQueue rcvdPk:count 13139
attr interpolationmode none
attr title "received packets, count"
scalar StarLAN.host[0].eth[0].queue.dataQueue rcvdPk:sum(packetBytes) 9443483
attr interpolationmode none
attr title "received packets, sum(packetBytes)"
scalar StarLAN.host[0].eth[0].mac "simulated time" 20
scalar StarLAN.host[0].eth[0].mac full-duplex 1
scalar StarLAN.host[0].eth[0].mac "frames/sec sent" 873.8
scalar StarLAN.host[0].eth[0].mac "frames/sec rcvd" 875.6
scalar StarLAN.host[0].eth[0].mac "bits/sec sent" 5028261.6
scalar StarLAN.host[0].eth[0].mac "bits/sec rcvd" 5029183.2
scalar StarLAN.host[0].eth[0].mac "rx channel idle (%)" 94.9147784
scalar StarLAN.host[0].eth[0].mac "rx channel utilization (%)" 5.0852216
scalar StarLAN.host[0].eth[0].mac rxPkFromHL:count 13139
attr interpolationmode none
attr source rxPkFromHL
attr title "packet bytes from higher layer, count"
scalar StarLAN.host[0].eth[0].mac rxPkFromHL:sum(packetBytes) 9443483
attr interpolationmode none
attr source rxPkFromHL
attr title "packet bytes from higher layer, sum(packetBytes)"
scalar StarLAN.host[0].eth[0].mac rxPausePkUnits:count 0
attr interpolationmode none
attr title "pause units received, count"
scalar StarLAN.host[0].eth[0].mac rxPausePkUnits:sum 0
attr interpolationmode none
attr title "pause units received, sum"
scalar StarLAN.host[0].eth[0].mac txPausePkUnits:count 0
attr interpolationmode none
attr title "pause units sent, count"
scalar StarLAN.host[0].eth[0].mac txPausePkUnits:sum 0
attr interpolationmode none
attr title "pause units sent, sum"
scalar StarLAN.host[0].eth[0].mac txPk:count 13139
attr interpolationmode none
attr source txPk
attr title "packets transmitted, count"
scalar StarLAN.host[0].eth[0].mac txPk:sum(packetBytes) 9443483
attr interpolationmode none
attr source txPk
attr title "packets transmitted, sum(packetBytes)"
scalar StarLAN.host[0].eth[0].mac droppedPkNotForUs:count 0
attr interpolationmode none
attr source dropPkNotForUs
attr title "packets dropped/not for us, count"
scalar StarLAN.host[0].eth[0].mac droppedPkNotForUs:sum(packetBytes) 0
attr interpolationmode none
attr source dropPkNotForUs
attr title "packets dropped/not for us, sum(packetBytes)"
scalar StarLAN.host[0].eth[0].mac droppedPkBitError:count 0
attr interpolationmode none
attr source dropPkBitError
attr title "packets dropped/bit error, count"
scalar StarLAN.host[0].eth[0].mac droppedPkBitError:sum(packetBytes) 0
attr interpolationmode none
attr source dropPkBitError
attr title "packets dropped/bit error, sum(packetBytes)"
scalar StarLAN.host[0].eth[0].mac droppedPkIfaceDown:count 0
attr interpolationmode none
attr source dropPkIfaceDown
attr title "packets dropped/interface down, count"
scalar StarLAN.host[0].eth[0].mac droppedPkIfaceDown:sum(packetBytes) 0
attr interpolationmode none
attr source dropPkIfaceDown
attr title "packets dropped/interface down, sum(packetBytes)"
scalar StarLAN.host[0].eth[0].mac rxPkOk:count 13139
attr interpolationmode none
attr source rxPkOk
attr title "packets received OK, count"
scalar StarLAN.host[0].eth[0].mac rxPkOk:sum(packetBytes) 9443483
attr interpolationmode none
attr source rxPkOk
attr title "packets received OK, sum(packetBytes)"
scalar StarLAN.host[0].eth[0].mac passedUpPk:count 13139
attr interpolationmode none
attr source packetSentToUpper
attr title "packets passed to higher layer, count"
scalar StarLAN.host[0].eth[0].mac passedUpPk:sum(packetBytes) 9443483
attr interpolationmode none
attr source packetSentToUpper
attr title "packets passed to higher layer, sum(packetBytes)"
scalar StarLAN.host[0].eth[0].encap pauseSent:count 0
attr title "pause sent, count"
scalar StarLAN.host[0].eth[0].encap pauseSent:sum 0
attr title "pause sent, sum"
scalar StarLAN.host[0].eth[0].encap decapPk:count 13139
attr interpolationmode none
attr source decapPk
attr title "packets decapsulated, count"
scalar StarLAN.host[0].eth[0].encap decapPk:sum(packetBytes) 9205772
attr interpolationmode none
attr source decapPk
attr title "packets decapsulated, sum(packetBytes)"
scalar StarLAN.host[0].eth[0].encap encapPk:count 13139
attr interpolationmode none
attr source encapPk
attr title "packets encapsulated, count"
scalar StarLAN.host[0].eth[0].encap encapPk:sum(packetBytes) 9205772
attr interpolationmode none
attr source encapPk
attr title "packets encapsulated, sum(packetBytes)"
scalar StarLAN.host[0].pingApp[0] "Pings sent" 375
scalar StarLAN.host[0].pingApp[0] "ping loss rate (%)" 0
scalar StarLAN.host[0].pingApp[0] "ping out-of-order rate (%)" 0
scalar StarLAN.host[0].pingApp[0] pingRxSeq:count 287
attr interpolationmode none
attr title "ping rx seq, count"
scalar StarLAN.host[0].pingApp[0] pingTxSeq:count 287
attr interpolationmode none
attr title "ping tx seq, count"
scalar StarLAN.host[0].pingApp[0] numOutOfOrderArrivals:last nan
attr interpolationmode none
attr title "ping out-of-order arrivals, last"
scalar StarLAN.host[0].pingApp[0] numLost:last nan
attr interpolationmode none
attr title "pings lost, last"
scalar StarLAN.host[0].pingApp[0] rtt:mean 0.00044726753464906
attr interpolationmode none
attr title "ping round-trip time, mean"
attr unit s
scalar StarLAN.host[0].pingApp[1] "Pings sent" 393
scalar StarLAN.host[0].pingApp[1] "ping loss rate (%)" 0
scalar StarLAN.host[0].pingApp[1] "ping out-of-order rate (%)" 0
scalar StarLAN.host[0].pingApp[1] pingRxSeq:count 308
attr interpolationmode none
attr title "ping rx seq, count"
scalar StarLAN.host[0].pingApp[1] pingTxSeq:count 308
attr interpolationmode none
attr title "ping tx seq, count"
scalar StarLAN.host[0].pingApp[1] numOutOfOrderArrivals:last nan
attr interpolationmode none
attr title "ping out-of-order arrivals, last"
scalar StarLAN.host[0].pingApp[1] numLost:last nan
attr interpolationmode none
attr title "pings lost, last"
scalar StarLAN.host[0].pingApp[1] rtt:mean 0.00035973547711828
attr interpolationmode none
attr title "ping round-trip time, mean"
attr unit s
scalar StarLAN.host[0].pingApp[2] "Pings sent" 403
scalar StarLAN.host[0].pingApp[2] "ping loss rate (%)" 0
scalar StarLAN.host[0].pingApp[2] "ping out-of-order rate (%)" 0
scalar StarLAN.host[0].pingApp[2] pingRxSeq:count 307
attr interpolationmode none
attr title "ping rx seq, count"
scalar StarLAN.host[0].pingApp[2] pingTxSeq:count 307
attr interpolationmode none
attr title "ping tx seq, count"
scalar StarLAN.host[0].pingApp[2] numOutOfOrderArrivals:last nan
attr interpolationmode none
attr title "ping out-of-order arrivals, last"
scalar StarLAN.host[0].pingApp[2] numLost:last nan
attr interpolationmode none
attr title "pings lost, last"
scalar StarLAN.host[0].pingApp[2] rtt:mean 0.00036584745306338
attr interpolationmode none
attr title "ping round-trip time, mean"
attr unit s
scalar StarLAN.host[0].pingApp[3] "Pings sent" 387
scalar StarLAN.host[0].pingApp[3] "ping loss rate (%)" 0
scalar StarLAN.host[0].pingApp[3] "ping out-of-order rate (%)" 0
scalar StarLAN.host[0].pingApp[3] pingRxSeq:count 290
attr interpolationmode none
attr title "ping rx seq, count"
scalar StarLAN.host[0].pingApp[3] pingTxSeq:count 290
attr interpolationmode none
attr title "ping tx seq, count"
scalar StarLAN.host[0].pingApp[3] numOutOfOrderArrivals:last nan
attr interpolationmode none
attr title "ping out-of-order arrivals, last"
scalar StarLAN.host[0].pingApp[3] numLost:last nan
attr interpolationmode none
attr title "pings lost, last"
scalar StarLAN.host[0].pingApp[3] rtt:mean 0.00027311122826378
attr interpolationmode none
attr title "ping round-trip time, mean"
attr unit s
scalar StarLAN.host[0].pingApp[4] "Pings sent" 383
scalar StarLAN.host[0].pingApp[4] "ping loss rate (%)" 0
scalar StarLAN.host[0].pingApp[4] "ping out-of-order rate (%)" 0
scalar StarLAN.host[0].pingApp[4] pingRxSeq:count 289
attr interpolationmode none
attr title "ping rx seq, count"
scalar StarLAN.host[0].pingApp[4] pingTxSeq:count 289
attr interpolationmode none
attr title "ping tx seq, count"
scalar StarLAN.host[0].pingApp[4] numOutOfOrderArrivals:last nan
attr interpolationmode none
attr title "ping out-of-order arrivals, last"
scalar StarLAN.host[0].pingApp[4] numLost:last nan
attr interpolationmode none
attr title "pings lost, last"
scalar StarLAN.host[0].pingApp[4] rtt:mean 0.00043986803298814
attr interpolationmode none
attr title "ping round-trip time, mean"
attr unit s
scalar StarLAN.host[0].pingApp[5] "Pings sent" 404
scalar StarLAN.host[0].pingApp[5] "ping loss rate (%)" 0
scalar StarLAN.host[0].pingApp[5] "ping out-of-order rate (%)" 0
scalar StarLAN.host[0].pingApp[5] pingRxSeq:count 302
attr interpolationmode none
attr title "ping rx seq, count"
scalar StarLAN.host[0].pingApp[5] pingTxSeq:count 302
attr interpolationmode none
attr title "ping tx seq, count"
scalar StarLAN.host[0].pingApp[5] numOutOfOrderArrivals:last nan
attr interpolationmode none
attr title "ping out-of-order arrivals, last"
scalar StarLAN.host[0].pingApp[5] numLost:last nan
attr interpolationmode none
attr title "pings lost, last"
scalar StarLAN.host[0].pingApp[5] rtt:mean 0.00029309770225725
attr interpolationmode none
attr title "ping round-trip time, mean"
attr unit s
scalar StarLAN.host[0].pingApp[6] "Pings sent" 392
scalar StarLAN.host[0].pingApp[6] "ping loss rate (%)" 0
scalar StarLAN.host[0].pingApp[6] "ping out-of-order rate (%)" 0
scalar StarLAN.host[0].pingApp[6] pingRxSeq:count 290
attr interpolationmode none
attr title "ping rx seq, count"
scalar StarLAN.host[0].pingApp[6] pingTxSeq:count 290
attr interpolationmode none
attr title "ping tx seq, count"
scalar StarLAN.host[0].pingApp[6] numOutOfOrderArrivals:last nan
attr interpolationmode none
attr title "ping out-of-order arrivals, last"
scalar StarLAN.host[0].pingApp[6] numLost:last nan
attr interpolationmode none
attr title "pings lost, last"
scalar StarLAN.host[0].pingApp[6] rtt:mean 0.00025233718547308
attr interpolationmode none
attr title "ping round-trip time, mean"
attr unit s
scalar StarLAN.host[0].pingApp[7] "Pings sent" 392
scalar StarLAN.host[0].pingApp[7] "ping loss rate (%)" 0
scalar StarLAN.host[0].pingApp[7] "ping out-of-order rate (%)" 0
scalar StarLAN.host[0].pingApp[7] pingRxSeq:count 294
attr interpolationmode none
attr title "ping rx seq, count"
scalar StarLAN.host[0].pingApp[7] pingTxSeq:count 294
attr interpolationmode none
attr title "ping tx seq, count"
scalar StarLAN.host[0].pingApp[7] numOutOfOrderArrivals:last nan
attr interpolationmode none
attr title "ping out-of-order arrivals, last"
scalar StarLAN.host[0].pingApp[7] numLost:last nan
attr interpolationmode none
attr title "pings lost, last"
scalar StarLAN.host[0].pingApp[7] rtt:mean 0.00031622740495167
attr interpolationmode none
attr title "ping round-trip time, mean"
attr unit s
scalar StarLAN.host[0].pingApp[8] "Pings sent" 386
scalar StarLAN.host[0].pingApp[8] "ping loss rate (%)" 0
scalar StarLAN.host[0].pingApp[8] "ping out-of-order rate (%)" 0
scalar StarLAN.host[0].pingApp[8] pingRxSeq:count 297
attr interpolationmode none
attr title "ping rx seq, count"
scalar StarLAN.host[0].pingApp[8] pingTxSeq:count 297
attr interpolationmode none
attr title "ping tx seq, count"
scalar StarLAN.host[0].pingApp[8] numOutOfOrderArrivals:last nan
attr interpolationmode none
attr title "ping out-of-order arrivals, last"
scalar StarLAN.host[0].pingApp[8] numLost:last nan
attr interpolationmode none
attr title "pings lost, last"
scalar StarLAN.host[0].pingApp[8] rtt:mean 0.00019466070428571
attr interpolationmode none
attr title "ping round-trip time, mean"
attr unit s
scalar StarLAN.host[0].pingApp[9] "Pings sent" 381
scalar StarLAN.host[0].pingApp[9] "ping loss rate (%)" 0
scalar StarLAN.host[0].pingApp[9] "ping out-of-order rate (%)" 0
scalar StarLAN.host[0].pingApp[9] pingRxSeq:count 292
attr interpolationmode none
attr title "ping rx seq, count"
scalar StarLAN.host[0].pingApp[9] pingTxSeq:count 292
attr interpolationmode none
attr title "ping tx seq, count"
scalar StarLAN.host[0].pingApp[9] numOutOfOrderArrivals:last nan
attr interpolationmode none
attr title "ping out-of-order arrivals, last"
scalar StarLAN.host[0].pingApp[9] numLost:last nan
attr interpolationmode none
attr title "pings lost, last"
scalar StarLAN.host[0].pingApp[9] rtt:mean 0.00040023111863921
attr interpolationmode none
attr title "ping round-trip time, mean"
attr unit s
scalar StarLAN.host[0].pingApp[10] "Pings sent" 402
scalar StarLAN.host[0].pingApp[10] "ping loss rate (%)" 0
scalar StarLAN.host[0].pingApp[10] "ping out-of-order rate (%)" 0
scalar StarLAN.host[0].pingApp[10] pingRxSeq:count 309
attr interpolationmode none
attr title "ping rx seq, count"
scalar StarLAN.host[0].pingApp[10] pingTxSeq:count 309
attr interpolationmode none
attr title "ping tx seq, count"
scalar StarLAN.host[0].pingApp[10] numOutOfOrderArrivals:last nan
attr interpolationmode none
attr title "ping out-of-order arrivals, last"
scalar StarLAN.host[0].pingApp[10] numLost:last nan
attr interpolationmode none
attr title "pings lost, last"
scalar StarLAN.host[0].pingApp[10] rtt:mean 0.00029367911889781
attr interpolationmode none
attr title "ping round-trip time, mean"
attr unit s
scalar StarLAN.host[0].pingApp[11] "Pings sent" 386
scalar StarLAN.host[0].pingApp[11] "ping loss rate (%)" 0
scalar StarLAN.host[0].pingApp[11] "ping out-of-order rate (%)" 0
scalar StarLAN.host[0].pingApp[11] pingRxSeq:count 288
attr interpolationmode none
attr title "ping rx seq, count"
scalar StarLAN.host[0].pingApp[11] pingTxSeq:count 288
attr interpolationmode none
attr title "ping tx seq, count"
scalar StarLAN.host[0].pingApp[11] numOutOfOrderArrivals:last nan
attr interpolationmode none
attr title "ping out-of-order arrivals, last"
scalar StarLAN.host[0].pingApp[11] numLost:last nan
attr interpolationmode none
attr title "pings lost, last"
scalar StarLAN.host[0].pingApp[11] rtt:mean 0.00042048011370196
attr interpolationmode none
attr title "ping round-trip time, mean"
attr unit s
scalar StarLAN.host[0].pingApp[12] "Pings sent" 381
scalar StarLAN.host[0].pingApp[12] "ping loss rate (%)" 0
scalar StarLAN.host[0].pingApp[12] "ping out-of-order rate (%)" 0
scalar StarLAN.host[0].pingApp[12] pingRxSeq:count 286
attr interpolationmode none
attr title "ping rx seq, count"
scalar StarLAN.host[0].pingApp[12] pingTxSeq:count 286
attr interpolationmode none
attr title "ping tx seq, count"
scalar StarLAN.host[0].pingApp[12] numOutOfOrderArrivals:last nan
attr interpolationmode none
attr title "ping out-of-order arrivals, last"
scalar StarLAN.host[0].pingApp[12] numLost:last nan
attr interpolationmode none
attr title "pings lost, last"
scalar StarLAN.host[0].pingApp[12] rtt:mean 0.00046973696221739
attr interpolationmode none
attr title "ping round-trip time, mean"
attr unit s
scalar StarLAN.host[0].pingApp[13] "Pings sent" 376
scalar StarLAN.host[0].pingApp[13] "ping loss rate (%)" 0
scalar StarLAN.host[0].pingApp[13] "ping out-of-order rate (%)" 0
scalar StarLAN.host[0].pingApp[13] pingRxSeq:count 291
attr interpolationmode none
attr title "ping rx seq, count"
scalar StarLAN.host[0].pingApp[13] pingTxSeq:count 291
attr interpolationmode none
attr title "ping tx seq, count"
scalar StarLAN.host[0].pingApp[13] numOutOfOrderArrivals:last nan
attr interpolationmode none
attr title "ping out-of-order arrivals, last"
scalar StarLAN.host[0].pingApp[13] numLost:last nan
attr interpolationmode none
attr title "pings lost, last"
scalar StarLAN.host[0].pingApp[13] rtt:mean 0.00037504606832714
attr interpolationmode none
attr title "ping round-trip time, mean"
attr unit s
scalar StarLAN.host[0].pingApp[14] "Pings sent" 394
scalar StarLAN.host[0].pingApp[14] "ping loss rate (%)" 0
scalar StarLAN.host[0].pingApp[14] "ping out-of-order rate (%)" 0
scalar StarLAN.host[0].pingApp[14] pingRxSeq:count 300
attr interpolationmode none
attr title "ping rx seq, count"
scalar StarLAN.host[0].pingApp[14] pingTxSeq:count 300
attr interpolationmode none
attr title "ping tx seq, count"
scalar StarLAN.host[0].pingApp[14] numOutOfOrderArrivals:last nan
attr interpolationmode none
attr title "ping out-of-order arrivals, last"
scalar StarLAN.host[0].pingApp[14] numLost:last nan
attr interpolationmode none
attr title "pings lost, last"
scalar StarLAN.host[0].pingApp[14] rtt:mean 0.00040594351269117
attr interpolationmode none
attr title "ping round-trip time, mean"
attr unit s
scalar StarLAN.host[0].pingApp[15] "Pings sent" 405
scalar StarLAN.host[0].pingApp[15] "ping loss rate (%)" 0
scalar StarLAN.host[0].pingApp[15] "ping out-of-order rate (%)" 0
scalar StarLAN.host[0].pingApp[15] pingRxSeq:count 301
attr interpolationmode none
attr title "ping rx seq, count"
scalar StarLAN.host[0].pingApp[15] pingTxSeq:count 301
attr interpolationmode none
attr title "ping tx seq, count"
scalar StarLAN.host[0].pingApp[15] numOutOfOrderArrivals:last nan
attr interpolationmode none
attr title "ping out-of-order arrivals, last"
scalar StarLAN.host[0].pingApp[15] numLost:last nan
attr interpolationmode none
attr title "pings lost, last"
scalar StarLAN.host[0].pingApp[15] rtt:mean 0.00029717051546591
attr interpolationmode none
attr title "ping round-trip time, mean"
attr unit s
scalar StarLAN.host[1].networkLayer.arp sentReply:count 0
attr title "ARP replies sent, count"
scalar StarLAN.host[1].networkLayer.arp sentReq:count 0
attr title "ARP request sent, count"
scalar StarLAN.host[1].networkLayer.arp failedARPResolution:count 0
attr title "ARP failed resolutions, count"
scalar StarLAN.host[1].networkLayer.arp completedARPResolution:count 0
attr title "ARP completed resolutions, count"
scalar StarLAN.host[1].networkLayer.arp initiatedARPResolution:count 0
attr title "ARP initiated resolutions, count"
scalar StarLAN.host[1].lo0.lo droppedPkBitError:count 0
attr interpolationmode none
attr source dropPkBitError
attr title "packets dropped/bit error, count"
scalar StarLAN.host[1].lo0.lo droppedPkBitError:sum(packetBytes) 0
attr interpolationmode none
attr source dropPkBitError
attr title "packets dropped/bit error, sum(packetBytes)"
scalar StarLAN.host[1].lo0.lo rcvdPkFromHL:count 1330
attr interpolationmode none
attr source packetReceivedFromUpper
attr title "packets received from higher layer, count"
scalar StarLAN.host[1].lo0.lo rcvdPkFromHL:sum(packetBytes) 894204
attr interpolationmode none
attr source packetReceivedFromUpper
attr title "packets received from higher layer, sum(packetBytes)"
scalar StarLAN.host[1].lo0.lo passedUpPk:count 1330
attr interpolationmode none
attr source packetSentToUpper
attr title "packets passed to higher layer, count"
scalar StarLAN.host[1].lo0.lo passedUpPk:sum(packetBytes) 894204
attr interpolationmode none
attr source packetSentToUpper
attr title "packets passed to higher layer, sum(packetBytes)"
scalar StarLAN.host[1].eth[0].queue.pauseQueue queueLength:max nan
attr interpolationmode sample-hold
attr title "queue length, max"
scalar StarLAN.host[1].eth[0].queue.pauseQueue queueLength:timeavg nan
attr interpolationmode sample-hold
attr title "queue length, timeavg"
statistic StarLAN.host[1].eth[0].queue.pauseQueue queueingTime:histogram
field count 0
field mean nan
field stddev nan
field min nan
field max nan
field sum 0
field sqrsum 0
attr interpolationmode none
attr title "queueing time, histogram"
bin	-inf	0
bin	-0.5	0
bin	-0.46666666666667	0
bin	-0.43333333333333	0
bin	-0.4	0
bin	-0.36666666666667	0
bin	-0.33333333333333	0
bin	-0.3	0
bin	-0.26666666666667	0
bin	-0.23333333333333	0
bin	-0.2	0
bin	-0.16666666666667	0
bin	-0.13333333333333	0
bin	-0.1	0
bin	-0.066666666666667	0
bin	-0.033333333333333	0
bin	0	0
bin	0.033333333333333	0
bin	0.066666666666667	0
bin	0.1	0
bin	0.13333333333333	0
bin	0.16666666666667	0
bin	0.2	0
bin	0.23333333333333	0
bin	0.26666666666667	0
bin	0.3	0
bin	0.33333333333333	0
bin	0.36666666666667	0
bin	0.4	0
bin	0.43333333333333	0
bin	0.46666666666667	0
bin	0.5	0
scalar StarLAN.host[1].eth[0].queue.pauseQueue dropPk:count 0
attr interpolationmode none
attr source dropPkByQueue
attr title "dropped packets, count"
scalar StarLAN.host[1].eth[0].queue.pauseQueue dropPk:sum(packetBytes) 0
attr interpolationmode none
attr source dropPkByQueue
attr title "dropped packets, sum(packetBytes)"
scalar StarLAN.host[1].eth[0].queue.pauseQueue rcvdPk:count 0
attr interpolationmode none
attr title "received packets, count"
scalar StarLAN.host[1].eth[0].queue.pauseQueue rcvdPk:sum(packetBytes) 0
attr interpolationmode none
attr title "received packets, sum(packetBytes)"
scalar StarLAN.host[1].eth[0].queue.dataQueue queueLength:max 4
attr interpolationmode sample-hold
attr title "queue length, max"
scalar StarLAN.host[1].eth[0].queue.dataQueue queueLength:timeavg 0.028966867083412
attr interpolationmode sample-hold
attr title "queue length, timeavg"
statistic StarLAN.host[1].eth[0].queue.dataQueue queueingTime:histogram
field count 12991
field mean 3.3445524749753e-005
field stddev 4.5664293092322e-005
field min 0
field max 0.00025608
field sum 0.43449081202404
field sqrsum 4.1618880557533e-005
attr interpolationmode none
attr title "queueing time, histogram"
bin	-inf	0
bin	-8.464e-005	0
bin	-7.3354666666667e-005	0
bin	-6.2069333333333e-005	0
bin	-5.0784e-005	0
bin	-3.9498666666667e-005	0
bin	-2.8213333333333e-005	0
bin	-1.6928e-005	0
bin	-5.6426666666667e-006	8084
bin	5.6426666666667e-006	55
bin	1.6928e-005	47
bin	2.8213333333333e-005	43
bin	3.9498666666667e-005	33
bin	5.0784e-005	36
bin	6.2069333333333e-005	30
bin	7.3354666666667e-005	23
bin	8.464e-005	4189
bin	9.5925333333333e-005	54
bin	0.00010721066666667	36
bin	0.000118496	30
bin	0.00012978133333333	27
bin	0.00014106666666667	19
bin	0.000152352	23
bin	0.00016363733333333	214
bin	0.00017492266666667	13
bin	0.000186208	16
bin	0.00019749333333333	7
bin	0.00020877866666667	2
bin	0.000220064	3
bin	0.00023134933333333	5
bin	0.00024263466666667	0
bin	0.00025392	2
scalar StarLAN.host[1].eth[0].queue.dataQueue dropPk:count 0
attr interpolationmode none
attr source dropPkByQueue
attr title "dropped packets, count"
scalar StarLAN.host[1].eth[0].queue.dataQueue dropPk:sum(packetBytes) 0
attr interpolationmode none
attr source dropPkByQueue
attr title "dropped packets, sum(packetBytes)"
scalar StarLAN.host[1].eth[0].queue.dataQueue rcvdPk:count 12991
attr interpolationmode none
attr title "received packets, count"
scalar StarLAN.host[1].eth[0].queue.dataQueue rcvdPk:sum(packetBytes) 9139850
attr interpolationmode none
attr title "received packets, sum(packetBytes)"
scalar StarLAN.host[1].eth[0].mac "simulated time" 20
scalar StarLAN.host[1].eth[0].mac full-duplex 1
scalar StarLAN.host[1].eth[0].mac "frames/sec sent" 857.8
scalar StarLAN.host[1].eth[0].mac "frames/sec rcvd" 859.6
scalar StarLAN.host[1].eth[0].mac "bits/sec sent" 4827388.8
scalar StarLAN.host[1].eth[0].mac "bits/sec rcvd" 4828310.4
scalar StarLAN.host[1].eth[0].mac "rx channel idle (%)" 95.1166752
scalar StarLAN.host[1].eth[0].mac "rx channel utilization (%)" 4.8833248
scalar StarLAN.host[1].eth[0].mac rxPkFromHL:count 12991
attr interpolationmode none
attr source rxPkFromHL
attr title "packet bytes from higher layer, count"
scalar StarLAN.host[1].eth[0].mac rxPkFromHL:sum(packetBytes) 9139850
attr interpolationmode none
attr source rxPkFromHL
attr title "packet bytes from higher layer, sum(packetBytes)"
scalar StarLAN.host[1].eth[0].mac rxPausePkUnits:count 0
attr interpolationmode none
attr title "pause units received, count"
scalar StarLAN.host[1].eth[0].mac rxPausePkUnits:sum 0
attr interpolationmode none
attr title "pause units received, sum"
scalar StarLAN.host[1].eth[0].mac txPausePkUnits:count 0
attr interpolationmode none
attr title "pause units sent, count"
scalar StarLAN.host[1].eth[0].mac txPausePkUnits:sum 0
attr interpolationmode none
attr title "pause units sent, sum"
scalar StarLAN.host[1].eth[0].mac txPk:count 12992
attr interpolationmode none
attr source txPk
attr title "packets transmitted, count"
scalar StarLAN.host[1].eth[0].mac txPk:sum(packetBytes) 9140664
attr interpolationmode none
attr source txPk
attr title "packets transmitted, sum(packetBytes)"
scalar StarLAN.host[1].eth[0].mac droppedPkNotForUs:count 0
attr interpolationmode none
attr source dropPkNotForUs
attr title "packets dropped/not for us, count"
scalar StarLAN.host[1].eth[0].mac droppedPkNotForUs:sum(packetBytes) 0
attr interpolationmode none
attr source dropPkNotForUs
attr title "packets dropped/not for us, sum(packetBytes)"
scalar StarLAN.host[1].eth[0].mac droppedPkBitError:count 0
attr interpolationmode none
attr source dropPkBitError
attr title "packets dropped/bit error, count"
scalar StarLAN.host[1].eth[0].mac droppedPkBitError:sum(packetBytes) 0
attr interpolationmode none
attr source dropPkBitError
attr title "packets dropped/bit error, sum(packetBytes)"
scalar StarLAN.host[1].eth[0].mac droppedPkIfaceDown:count 0
attr interpolationmode none
attr source dropPkIfaceDown
attr title "packets dropped/interface down, count"
scalar StarLAN.host[1].eth[0].mac droppedPkIfaceDown:sum(packetBytes) 0
attr interpolationmode none
attr source dropPkIfaceDown
attr title "packets dropped/interface down, sum(packetBytes)"
scalar StarLAN.host[1].eth[0].mac rxPkOk:count 12992
attr interpolationmode none
attr source rxPkOk
attr title "packets received OK, count"
scalar StarLAN.host[1].eth[0].mac rxPkOk:sum(packetBytes) 9140664
attr interpolationmode none
attr source rxPkOk
attr title "packets received OK, sum(packetBytes)"
scalar StarLAN.host[1].eth[0].mac passedUpPk:count 12992
attr interpolationmode none
attr source packetSentToUpper
attr title "packets passed to higher layer, count"
scalar StarLAN.host[1].eth[0].mac passedUpPk:sum(packetBytes) 9140664
attr interpolationmode none
attr source packetSentToUpper
attr title "packets passed to higher layer, sum(packetBytes)"
scalar StarLAN.host[1].eth[0].encap pauseSent:count 0
attr title "pause sent, count"
scalar StarLAN.host[1].eth[0].encap pauseSent:sum 0
attr title "pause sent, sum"
scalar StarLAN.host[1].eth[0].encap decapPk:count 12992
attr interpolationmode none
attr source decapPk
attr title "packets decapsulated, count"
scalar StarLAN.host[1].eth[0].encap decapPk:sum(packetBytes) 8905455
attr interpolationmode none
attr source decapPk
attr title "packets decapsulated, sum(packetBytes)"
scalar StarLAN.host[1].eth[0].encap encapPk:count 12991
attr interpolationmode none
attr source encapPk
attr title "packets encapsulated, count"
scalar StarLAN.host[1].eth[0].encap encapPk:sum(packetBytes) 8904659
attr interpolationmode none
attr source encapPk
attr title "packets encapsulated, sum(packetBytes)"
scalar StarLAN.host[1].pingApp[0] "Pings sent" 402
scalar StarLAN.host[1].pingApp[0] "ping loss rate (%)" 0
scalar StarLAN.host[1].pingApp[0] "ping out-of-order rate (%)" 0
scalar StarLAN.host[1].pingApp[0] pingRxSeq:count 312
attr interpolationmode none
attr title "ping rx seq, count"
scalar StarLAN.host[1].pingApp[0] pingTxSeq:count 312
attr interpolationmode none
attr title "ping tx seq, count"
scalar StarLAN.host[1].pingApp[0] numOutOfOrderArrivals:last nan
attr interpolationmode none
attr title "ping out-of-order arrivals, last"
scalar StarLAN.host[1].pingApp[0] numLost:last nan
attr interpolationmode none
attr title "pings lost, last"
scalar StarLAN.host[1].pingApp[0] rtt:mean 0.00039110022372727
attr interpolationmode none
attr title "ping round-trip time, mean"
attr unit s
scalar StarLAN.host[1].pingApp[1] "Pings sent" 380
scalar StarLAN.host[1].pingApp[1] "ping loss rate (%)" 0
scalar StarLAN.host[1].pingApp[1] "ping out-of-order rate (%)" 0
scalar StarLAN.host[1].pingApp[1] pingRxSeq:count 287
attr interpolationmode none
attr title "ping rx seq, count"
scalar StarLAN.host[1].pingApp[1] pingTxSeq:count 287
attr interpolationmode none
attr title "ping tx seq, count"
scalar StarLAN.host[1].pingApp[1] numOutOfOrderArrivals:last nan
attr interpolationmode none
attr title "ping out-of-order arrivals, last"
scalar StarLAN.host[1].pingApp[1] numLost:last nan
attr interpolationmode none
attr title "pings lost, last"
scalar StarLAN.host[1].pingApp[1] rtt:mean 0.0004071549503861
attr interpolationmode none
attr title "ping round-trip time, mean"
attr unit s
scalar StarLAN.host[1].pingApp[2] "Pings sent" 382
scalar StarLAN.host[1].pingApp[2] "ping loss rate (%)" 0
scalar StarLAN.host[1].pingApp[2] "ping out-of-order rate (%)" 0
scalar StarLAN.host[1].pingApp[2] pingRxSeq:count 287
attr interpolationmode none
attr title "ping rx seq, count"
scalar StarLAN.host[1].pingApp[2] pingTxSeq:count 287
attr interpolationmode none
attr title "ping tx seq, count"
scalar StarLAN.host[1].pingApp[2] numOutOfOrderArrivals:last nan
attr interpolationmode none
attr title "ping out-of-order arrivals, last"
scalar StarLAN.host[1].pingApp[2] numLost:last nan
attr interpolationmode none
attr title "pings lost, last"
scalar StarLAN.host[1].pingApp[2] rtt:mean 9.0441392164751e-005
attr interpolationmode none
attr title "ping round-trip time, mean"
attr unit s
scalar StarLAN.host[1].pingApp[3] "Pings sent" 388
scalar StarLAN.host[1].pingApp[3] "ping loss rate (%)" 0
scalar StarLAN.host[1].pingApp[3] "ping out-of-order rate (%)" 0
scalar StarLAN.host[1].pingApp[3] pingRxSeq:count 293
attr interpolationmode none
attr title "ping rx seq, count"
scalar StarLAN.host[1].pingApp[3] pingTxSeq:count 293
attr interpolationmode none
attr title "ping tx seq, count"
scalar StarLAN.host[1].pingApp[3] numOutOfOrderArrivals:last nan
attr interpolationmode none
attr title "ping out-of-order arrivals, last"
scalar StarLAN.host[1].pingApp[3] numLost:last nan
attr interpolationmode none
attr title "pings lost, last"
scalar StarLAN.host[1].pingApp[3] rtt:mean 0.00016329837874815
attr interpolationmode none
attr title "ping round-trip time, mean"
attr unit s
scalar StarLAN.host[1].pingApp[4] "Pings sent" 369
scalar StarLAN.host[1].pingApp[4] "ping loss rate (%)" 0
scalar StarLAN.host[1].pingApp[4] "ping out-of-order rate (%)" 0
scalar StarLAN.host[1].pingApp[4] pingRxSeq:count 275
attr interpolationmode none
attr title "ping rx seq, count"
scalar StarLAN.host[1].pingApp[4] pingTxSeq:count 274
attr interpolationmode none
attr title "ping tx seq, count"
scalar StarLAN.host[1].pingApp[4] numOutOfOrderArrivals:last nan
attr interpolationmode none
attr title "ping out-of-order arrivals, last"
scalar StarLAN.host[1].pingApp[4] numLost:last nan
attr interpolationmode none
attr title "pings lost, last"
scalar StarLAN.host[1].pingApp[4] rtt:mean 0.00027734952319433
attr interpolationmode none
attr title "ping round-trip time, mean"
attr unit s
scalar StarLAN.host[1].pingApp[5] "Pings sent" 386
scalar StarLAN.host[1].pingApp[5] "ping loss rate (%)" 0
scalar StarLAN.host[1].pingApp[5] "ping out-of-order rate (%)" 0
scalar StarLAN.host[1].pingApp[5] pingRxSeq:count 292
attr interpolationmode none
attr title "ping rx seq, count"
scalar StarLAN.host[1].pingApp[5] pingTxSeq:count 292
attr interpolationmode none
attr title "ping tx seq, count"
scalar StarLAN.host[1].pingApp[5] numOutOfOrderArrivals:last nan
attr interpolationmode none
attr title "ping out-of-order arrivals, last"
scalar StarLAN.host[1].pingApp[5] numLost:last nan
attr interpolationmode none
attr title "pings lost, last"
scalar StarLAN.host[1].pingApp[5] rtt:mean 0.0003854096666374
attr interpolationmode none
attr title "ping round-trip time, mean"
attr unit s
scalar StarLAN.host[1].pingApp[6] "Pings sent" 385
scalar StarLAN.host[1].pingApp[6] "ping loss rate (%)" 0
scalar StarLAN.host[1].pingApp[6] "ping out-of-order rate (%)" 0
scalar StarLAN.host[1].pingApp[6] pingRxSeq:count 301
attr interpolationmode none
attr title "ping rx seq, count"
scalar StarLAN.host[1].pingApp[6] pingTxSeq:count 301
attr interpolationmode none
attr title "ping tx seq, count"
scalar StarLAN.host[1].pingApp[6] numOutOfOrderArrivals:last nan
attr interpolationmode none
attr title "ping out-of-order arrivals, last"
scalar StarLAN.host[1].pingApp[6] numLost:last nan
attr interpolationmode none
attr title "pings lost, last"
scalar StarLAN.host[1].pingApp[6] rtt:mean 0.00018108968273308
attr interpolationmode none
attr title "ping round-trip time, mean"
attr unit s
scalar StarLAN.host[1].pingApp[7] "Pings sent" 371
scalar StarLAN.host[1].pingApp[7] "ping loss rate (%)" 0
scalar StarLAN.host[1].pingApp[7] "ping out-of-order rate (%)" 0
scalar StarLAN.host[1].pingApp[7] pingRxSeq:count 277
attr interpolationmode none
attr title "ping rx seq, count"
scalar StarLAN.host[1].pingApp[7] pingTxSeq:count 277
attr interpolationmode none
attr title "ping tx seq, count"
scalar StarLAN.host[1].pingApp[7] numOutOfOrderArrivals:last nan
attr interpolationmode none
attr title "ping out-of-order arrivals, last"
scalar StarLAN.host[1].pingApp[7] numLost:last nan
attr interpolationmode none
attr title "pings lost, last"
scalar StarLAN.host[1].pingApp[7] rtt:mean 0.00041403642520884
attr interpolationmode none
attr title "ping round-trip time, mean"
attr unit s
scalar StarLAN.host[1].pingApp[8] "Pings sent" 380
scalar StarLAN.host[1].pingApp[8] "ping loss rate (%)" 0
scalar StarLAN.host[1].pingApp[8] "ping out-of-order rate (%)" 0
scalar StarLAN.host[1].pingApp[8] pingRxSeq:count 290
attr interpolationmode none
attr title "ping rx seq, count"
scalar StarLAN.host[1].pingApp[8] pingTxSeq:count 290
attr interpolationmode none
attr title "ping tx seq, count"
scalar StarLAN.host[1].pingApp[8] numOutOfOrderArrivals:last nan
attr interpolationmode none
attr title "ping out-of-order arrivals, last"
scalar StarLAN.host[1].pingApp[8] numLost:last nan
attr interpolationmode none
attr title "pings lost, last"
scalar StarLAN.host[1].pingApp[8] rtt:mean 0.00027019930755725
attr interpolationmode none
attr title "ping round-trip time, mean"
attr unit s
scalar StarLAN.host[1].pingApp[9] "Pings sent" 394
scalar StarLAN.host[1].pingApp[9] "ping loss rate (%)" 0
scalar StarLAN.host[1].pingApp[9] "ping out-of-order rate (%)" 0
scalar StarLAN.host[1].pingApp[9] pingRxSeq:count 292
attr interpolationmode none
attr title "ping rx seq, count"
scalar StarLAN.host[1].pingApp[9] pingTxSeq:count 292
attr interpolationmode none
attr title "ping tx seq, count"
scalar StarLAN.host[1].pingApp[9] numOutOfOrderArrivals:last nan
attr interpolationmode none
attr title "ping out-of-order arrivals, last"
scalar StarLAN.host[1].pingApp[9] numLost:last nan
attr interpolationmode none
attr title "pings lost, last"
scalar StarLAN.host[1].pingApp[9] rtt:mean 0.00046771942096992
attr interpolationmode none
attr title "ping round-trip time, mean"
attr unit s
scalar StarLAN.host[1].pingApp[10] "Pings sent" 394
scalar StarLAN.host[1].pingApp[10] "ping loss rate (%)" 0
scalar StarLAN.host[1].pingApp[10] "ping out-of-order rate (%)" 0
scalar StarLAN.host[1].pingApp[10] pingRxSeq:count 296
attr interpolationmode none
attr title "ping rx seq, count"
scalar StarLAN.host[1].pingApp[10] pingTxSeq:count 296
attr interpolationmode none
attr title "ping tx seq, count"
scalar StarLAN.host[1].pingApp[10] numOutOfOrderArrivals:last nan
attr interpolationmode none
attr title "ping out-of-order arrivals, last"
scalar StarLAN.host[1].pingApp[10] numLost:last nan
attr interpolationmode none
attr title "pings lost, last"
scalar StarLAN.host[1].pingApp[10] rtt:mean 0.00031551642469173
attr interpolationmode none
attr title "ping round-trip time, mean"
attr unit s
scalar StarLAN.host[1].pingApp[11] "Pings sent" 382
scalar StarLAN.host[1].pingApp[11] "ping loss rate (%)" 0
scalar StarLAN.host[1].pingApp[11] "ping out-of-order rate (%)" 0
scalar StarLAN.host[1].pingApp[11] pingRxSeq:count 289
attr interpolationmode none
attr title "ping rx seq, count"
scalar StarLAN.host[1].pingApp[11] pingTxSeq:count 289
attr interpolationmode none
attr title "ping tx seq, count"
scalar StarLAN.host[1].pingApp[11] numOutOfOrderArrivals:last nan
attr interpolationmode none
attr title "ping out-of-order arrivals, last"
scalar StarLAN.host[1].pingApp[11] numLost:last nan
attr interpolationmode none
attr title "pings lost, last"
scalar StarLAN.host[1].pingApp[11] rtt:mean 0.0003030954457881
attr interpolationmode none
attr title "ping round-trip time, mean"
attr unit s
scalar StarLAN.host[1].pingApp[12] "Pings sent" 384
scalar StarLAN.host[1].pingApp[12] "ping loss rate (%)" 0
scalar StarLAN.host[1].pingApp[12] "ping out-of-order rate (%)" 0
scalar StarLAN.host[1].pingApp[12] pingRxSeq:count 291
attr interpolationmode none
attr title "ping rx seq, count"
scalar StarLAN.host[1].pingApp[12] pingTxSeq:count 291
attr interpolationmode none
attr title "ping tx seq, count"
scalar StarLAN.host[1].pingApp[12] numOutOfOrderArrivals:last nan
attr interpolationmode none
attr title "ping out-of-order arrivals, last"
scalar StarLAN.host[1].pingApp[12] numLost:last nan
attr interpolationmode none
attr title "pings lost, last"
scalar StarLAN.host[1].pingApp[12] rtt:mean 0.00040796180396198
attr interpolationmode none
attr title "ping round-trip time, mean"
attr unit s
scalar StarLAN.host[1].pingApp[13] "Pings sent" 380
scalar StarLAN.host[1].pingApp[13] "ping loss rate (%)" 0
scalar StarLAN.host[1].pingApp[13] "ping out-of-order rate (%)" 0
scalar StarLAN.host[1].pingApp[13] pingRxSeq:count 286
attr interpolationmode none
attr title "ping rx seq, count"
scalar StarLAN.host[1].pingApp[13] pingTxSeq:count 286
attr interpolationmode none
attr title "ping tx seq, count"
scalar StarLAN.host[1].pingApp[13] numOutOfOrderArrivals:last nan
attr interpolationmode none
attr title "ping out-of-order arrivals, last"
scalar StarLAN.host[1].pingApp[13] numLost:last nan
attr interpolationmode none
attr title "pings lost, last"
scalar StarLAN.host[1].pingApp[13] rtt:mean 0.00037416278253125
attr interpolationmode none
attr title "ping round-trip time, mean"
attr unit s
scalar StarLAN.host[1].pingApp[14] "Pings sent" 390
scalar StarLAN.host[1].pingApp[14] "ping loss rate (%)" 0
scalar StarLAN.host[1].pingApp[14] "ping out-of-order rate (%)" 0
scalar StarLAN.host[1].pingApp[14] pingRxSeq:count 297
attr interpolationmode none
attr title "ping rx seq, count"
scalar StarLAN.host[1].pingApp[14] pingTxSeq:count 297
attr interpolationmode none
attr title "ping tx seq, count"
scalar StarLAN.host[1].pingApp[14] numOutOfOrderArrivals:last nan
attr interpolationmode none
attr title "ping out-of-order arrivals, last"
scalar StarLAN.host[1].pingApp[14] numLost:last nan
attr interpolationmode none
attr title "pings lost, last"
scalar StarLAN.host[1].pingApp[14] rtt:mean 0.00044465185532103
attr interpolationmode none
attr title "ping round-trip time, mean"
attr unit s
scalar StarLAN.host[1].pingApp[15] "Pings sent" 383
scalar StarLAN.host[1].pingApp[15] "ping loss rate (%)" 0
scalar StarLAN.host[1].pingApp[15] "ping out-of-order rate (%)" 0
scalar StarLAN.host[1].pingApp[15] pingRxSeq:count 289
attr interpolationmode none
attr title "ping rx seq, count"
scalar StarLAN.host[1].pingApp[15] pingTxSeq:count 289
attr interpolationmode none
attr title "ping tx seq, count"
scalar StarLAN.host[1].pingApp[15] numOutOfOrderArrivals:last nan
attr interpolationmode none
attr title "ping out-of-order arrivals, last"
scalar StarLAN.host[1].pingApp[15] numLost:last nan
attr interpolationmode none
attr title "pings lost, last"
scalar StarLAN.host[1].pingApp[15] rtt:mean 0.00019146604346512
attr interpolationmode none
attr title "ping round-trip time, mean"
attr unit s
scalar StarLAN.host[2].networkLayer.arp sentReply:count 0
attr title "ARP replies sent, count"
scalar StarLAN.host[2].networkLayer.arp sentReq:count 0
attr title "ARP request sent, count"
scalar StarLAN.host[2].networkLayer.arp failedARPResolution:count 0
attr title "ARP failed resolutions, count"
scalar StarLAN.host[2].networkLayer.arp completedARPResolution:count 0
attr title "ARP completed resolutions, count"
scalar StarLAN.host[2].networkLayer.arp initiatedARPResolution:count 0
attr title "ARP initiated resolutions, count"
scalar StarLAN.host[2].lo0.lo droppedPkBitError:count 0
attr interpolationmode none
attr source dropPkBitError
attr title "packets dropped/bit error, count"
scalar StarLAN.host[2].lo0.lo droppedPkBitError:sum(packetBytes) 0
attr interpolationmode none
attr source dropPkBitError
attr title "packets dropped/bit error, sum(packetBytes)"
scalar StarLAN.host[2].lo0.lo rcvdPkFromHL:count 1360
attr interpolationmode none
attr source packetReceivedFromUpper
attr title "packets received from higher layer, count"
scalar StarLAN.host[2].lo0.lo rcvdPkFromHL:sum(packetBytes) 848762
attr interpolationmode none
attr source packetReceivedFromUpper
attr title "packets received from higher layer, sum(packetBytes)"
scalar StarLAN.host[2].lo0.lo passedUpPk:count 1360
attr interpolationmode none
attr source packetSentToUpper
attr title "packets passed to higher layer, count"
scalar StarLAN.host[2].lo0.lo passedUpPk:sum(packetBytes) 848762
attr interpolationmode none
attr source packetSentToUpper
attr title "packets passed to higher layer, sum(packetBytes)"
scalar StarLAN.host[2].eth[0].queue.pauseQueue queueLength:max nan
attr interpolationmode sample-hold
attr title "queue length, max"
scalar StarLAN.host[2].eth[0].queue.pauseQueue queueLength:timeavg nan
attr interpolationmode sample-hold
attr title "queue length, timeavg"
statistic StarLAN.host[2].eth[0].queue.pauseQueue queueingTime:histogram
field count 0
field mean nan
field stddev nan
field min nan
field max nan
field sum 0
field sqrsum 0
attr interpolationmode none
attr title "queueing time, histogram"
bin	-inf	0
bin	-0.5	0
bin	-0.46666666666667	0
bin	-0.43333333333333	0
bin	-0.4	0
bin	-0.36666666666667	0
bin	-0.33333333333333	0
bin	-0.3	0
bin	-0.26666666666667	0
bin	-0.23333333333333	0
bin	-0.2	0
bin	-0.16666666666667	0
bin	-0.13333333333333	0
bin	-0.1	0
bin	-0.066666666666667	0
bin	-0.033333333333333	0
bin	0	0
bin	0.033333333333333	0
bin	0.066666666666667	0
bin	0.1	0
bin	0.13333333333333	0
bin	0.16666666666667	0
bin	0.2	0
bin	0.23333333333333	0
bin	0.26666666666667	0
bin	0.3	0
bin	0.33333333333333	0
bin	0.36666666666667	0
bin	0.4	0
bin	0.43333333333333	0
bin	0.46666666666667	0
bin	0.5	0
scalar StarLAN.host[2].eth[0].queue.pauseQueue dropPk:count 0
attr interpolationmode none
attr source dropPkByQueue
attr title "dropped packets, count"
scalar StarLAN.host[2].eth[0].queue.pauseQueue dropPk:sum(packetBytes) 0
attr interpolationmode none
attr source dropPkByQueue
attr title "dropped packets, sum(packetBytes)"
scalar StarLAN.host[2].eth[0].queue.pauseQueue rcvdPk:count 0
attr interpolationmode none
attr title "received packets, count"
scalar StarLAN.host[2].eth[0].queue.pauseQueue rcvdPk:sum(packetBytes) 0
attr interpolationmode none
attr title "received packets, sum(packetBytes)"
scalar StarLAN.host[2].eth[0].queue.dataQueue queueLength:max 5
attr interpolationmode sample-hold
attr title "queue length, max"
scalar StarLAN.host[2].eth[0].queue.dataQueue queueLength:timeavg 0.028436289741728
attr interpolationmode sample-hold
attr title "queue length, timeavg"
statistic StarLAN.host[2].eth[0].queue.dataQueue queueingTime:histogram
field count 12838
field mean 3.321019322348e-005
field stddev 4.5795722085332e-005
field min 0
field max 0.000292232332
field sum 0.42635246060303
field sqrsum 4.1081622244759e-005
attr interpolationmode none
attr title "queueing time, histogram"
bin	-inf	0
bin	-0.0001146052725	0
bin	-9.93245695e-005	0
bin	-8.40438665e-005	0
bin	-6.87631635e-005	0
bin	-5.34824605e-005	0
bin	-3.82017575e-005	0
bin	-2.29210545e-005	0
bin	-7.6403515e-006	8039
bin	7.6403515e-006	71
bin	2.29210545e-005	66
bin	3.82017575e-005	50
bin	5.34824605e-005	46
bin	6.87631635e-005	33
bin	8.40438665e-005	4105
bin	9.93245695e-005	56
bin	0.0001146052725	39
bin	0.0001298859755	30
bin	0.0001451666785	18
bin	0.0001604473815	235
bin	0.0001757280845	23
bin	0.0001910087875	10
bin	0.0002062894905	8
bin	0.0002215701935	5
bin	0.0002368508965	0
bin	0.0002521315995	3
bin	0.0002674123025	0
bin	0.0002826930055	1
bin	0.0002979737085	0
bin	0.0003132544115	0
bin	0.0003285351145	0
bin	0.0003438158175	0
scalar StarLAN.host[2].eth[0].queue.dataQueue dropPk:count 0
attr interpolationmode none
attr source dropPkByQueue
attr title "dropped packets, count"
scalar StarLAN.host[2].eth[0].queue.dataQueue dropPk:sum(packetBytes) 0
attr interpolationmode none
attr source dropPkByQueue
attr title "dropped packets, sum(packetBytes)"
scalar StarLAN.host[2].eth[0].queue.dataQueue rcvdPk:count 12838
attr interpolationmode none
attr title "received packets, count"
scalar StarLAN.host[2].eth[0].queue.dataQueue rcvdPk:sum(packetBytes) 8833945
attr interpolationmode none
attr title "received packets, sum(packetBytes)"
scalar StarLAN.host[2].eth[0].mac "simulated time" 20
scalar StarLAN.host[2].eth[0].mac full-duplex 1
scalar StarLAN.host[2].eth[0].mac "frames/sec sent" 839.3
scalar StarLAN.host[2].eth[0].mac "frames/sec rcvd" 841.1
scalar StarLAN.host[2].eth[0].mac "bits/sec sent" 4607390.4
scalar StarLAN.host[2].eth[0].mac "bits/sec rcvd" 4608312
scalar StarLAN.host[2].eth[0].mac "rx channel idle (%)" 95.3378576
scalar StarLAN.host[2].eth[0].mac "rx channel utilization (%)" 4.6621424
scalar StarLAN.host[2].eth[0].mac rxPkFromHL:count 12838
attr interpolationmode none
attr source rxPkFromHL
attr title "packet bytes from higher layer, count"
scalar StarLAN.host[2].eth[0].mac rxPkFromHL:sum(packetBytes) 8833945
attr interpolationmode none
attr source rxPkFromHL
attr title "packet bytes from higher layer, sum(packetBytes)"
scalar StarLAN.host[2].eth[0].mac rxPausePkUnits:count 0
attr interpolationmode none
attr title "pause units received, count"
scalar StarLAN.host[2].eth[0].mac rxPausePkUnits:sum 0
attr interpolationmode none
attr title "pause units received, sum"
scalar StarLAN.host[2].eth[0].mac txPausePkUnits:count 0
attr interpolationmode none
attr title "pause units sent, count"
scalar StarLAN.host[2].eth[0].mac txPausePkUnits:sum 0
attr interpolationmode none
attr title "pause units sent, sum"
scalar StarLAN.host[2].eth[0].mac txPk:count 12838
attr interpolationmode none
attr source txPk
attr title "packets transmitted, count"
scalar StarLAN.host[2].eth[0].mac txPk:sum(packetBytes) 8833945
attr interpolationmode none
attr source txPk
attr title "packets transmitted, sum(packetBytes)"
scalar StarLAN.host[2].eth[0].mac droppedPkNotForUs:count 0
attr interpolationmode none
attr source dropPkNotForUs
attr title "packets dropped/not for us, count"
scalar StarLAN.host[2].eth[0].mac droppedPkNotForUs:sum(packetBytes) 0
attr interpolationmode none
attr source dropPkNotForUs
attr title "packets dropped/not for us, sum(packetBytes)"
scalar StarLAN.host[2].eth[0].mac droppedPkBitError:count 0
attr interpolationmode none
attr source dropPkBitError
attr title "packets dropped/bit error, count"
scalar StarLAN.host[2].eth[0].mac droppedPkBitError:sum(packetBytes) 0
attr interpolationmode none
attr source dropPkBitError
attr title "packets dropped/bit error, sum(packetBytes)"
scalar StarLAN.host[2].eth[0].mac droppedPkIfaceDown:count 0
attr interpolationmode none
attr source dropPkIfaceDown
attr title "packets dropped/interface down, count"
scalar StarLAN.host[2].eth[0].mac droppedPkIfaceDown:sum(packetBytes) 0
attr interpolationmode none
attr source dropPkIfaceDown
attr title "packets dropped/interface down, sum(packetBytes)"
scalar StarLAN.host[2].eth[0].mac rxPkOk:count 12838
attr interpolationmode none
attr source rxPkOk
attr title "packets received OK, count"
scalar StarLAN.host[2].eth[0].mac rxPkOk:sum(packetBytes) 8833945
attr interpolationmode none
attr source rxPkOk
attr title "packets received OK, sum(packetBytes)"
scalar StarLAN.host[2].eth[0].mac passedUpPk:count 12838
attr interpolationmode none
attr source packetSentToUpper
attr title "packets passed to higher layer, count"
scalar StarLAN.host[2].eth[0].mac passedUpPk:sum(packetBytes) 8833945
attr interpolationmode none
attr source packetSentToUpper
attr title "packets passed to higher layer, sum(packetBytes)"
scalar StarLAN.host[2].eth[0].encap pauseSent:count 0
attr title "pause sent, count"
scalar StarLAN.host[2].eth[0].encap pauseSent:sum 0
attr title "pause sent, sum"
scalar StarLAN.host[2].eth[0].encap decapPk:count 12838
attr interpolationmode none
attr source decapPk
attr title "packets decapsulated, count"
scalar StarLAN.host[2].eth[0].encap decapPk:sum(packetBytes) 8601621
attr interpolationmode none
attr source decapPk
attr title "packets decapsulated, sum(packetBytes)"
scalar StarLAN.host[2].eth[0].encap encapPk:count 12838
attr interpolationmode none
attr source encapPk
attr title "packets encapsulated, count"
scalar StarLAN.host[2].eth[0].encap encapPk:sum(packetBytes) 8601621
attr interpolationmode none
attr source encapPk
attr title "packets encapsulated, sum(packetBytes)"
scalar StarLAN.host[2].pingApp[0] "Pings sent" 383
scalar StarLAN.host[2].pingApp[0] "ping loss rate (%)" 0
scalar StarLAN.host[2].pingApp[0] "ping out-of-order rate (%)" 0
scalar StarLAN.host[2].pingApp[0] pingRxSeq:count 300
attr interpolationmode none
attr title "ping rx seq, count"
scalar StarLAN.host[2].pingApp[0] pingTxSeq:count 300
attr interpolationmode none
attr title "ping tx seq, count"
scalar StarLAN.host[2].pingApp[0] numOutOfOrderArrivals:last nan
attr interpolationmode none
attr title "ping out-of-order arrivals, last"
scalar StarLAN.host[2].pingApp[0] numLost:last nan
attr interpolationmode none
attr title "pings lost, last"
scalar StarLAN.host[2].pingApp[0] rtt:mean 0.00046002006411913
attr interpolationmode none
attr title "ping round-trip time, mean"
attr unit s
scalar StarLAN.host[2].pingApp[1] "Pings sent" 377
scalar StarLAN.host[2].pingApp[1] "ping loss rate (%)" 0
scalar StarLAN.host[2].pingApp[1] "ping out-of-order rate (%)" 0
scalar StarLAN.host[2].pingApp[1] pingRxSeq:count 284
attr interpolationmode none
attr title "ping rx seq, count"
scalar StarLAN.host[2].pingApp[1] pingTxSeq:count 284
attr interpolationmode none
attr title "ping tx seq, count"
scalar StarLAN.host[2].pingApp[1] numOutOfOrderArrivals:last nan
attr interpolationmode none
attr title "ping out-of-order arrivals, last"
scalar StarLAN.host[2].pingApp[1] numLost:last nan
attr interpolationmode none
attr title "pings lost, last"
scalar StarLAN.host[2].pingApp[1] rtt:mean 0.00038668017485827
attr interpolationmode none
attr title "ping round-trip time, mean"
attr unit s
scalar StarLAN.host[2].pingApp[2] "Pings sent" 379
scalar StarLAN.host[2].pingApp[2] "ping loss rate (%)" 0
scalar StarLAN.host[2].pingApp[2] "ping out-of-order rate (%)" 0
scalar StarLAN.host[2].pingApp[2] pingRxSeq:count 287
attr interpolationmode none
attr title "ping rx seq, count"
scalar StarLAN.host[2].pingApp[2] pingTxSeq:count 287
attr interpolationmode none
attr title "ping tx seq, count"
scalar StarLAN.host[2].pingApp[2] numOutOfOrderArrivals:last nan
attr interpolationmode none
attr title "ping out-of-order arrivals, last"
scalar StarLAN.host[2].pingApp[2] numLost:last nan
attr interpolationmode none
attr title "pings lost, last"
scalar StarLAN.host[2].pingApp[2] rtt:mean 0.00044413091761303
attr interpolationmode none
attr title "ping round-trip time, mean"
attr unit s
scalar StarLAN.host[2].pingApp[3] "Pings sent" 384
scalar StarLAN.host[2].pingApp[3] "ping loss rate (%)" 0
scalar StarLAN.host[2].pingApp[3] "ping out-of-order rate (%)" 0
scalar StarLAN.host[2].pingApp[3] pingRxSeq:count 287
attr interpolationmode none
attr title "ping rx seq, count"
scalar StarLAN.host[2].pingApp[3] pingTxSeq:count 287
attr interpolationmode none
attr title "ping tx seq, count"
scalar StarLAN.host[2].pingApp[3] numOutOfOrderArrivals:last nan
attr interpolationmode none
attr title "ping out-of-order arrivals, last"
scalar StarLAN.host[2].pingApp[3] numLost:last nan
attr interpolationmode none
attr title "pings lost, last"
scalar StarLAN.host[2].pingApp[3] rtt:mean 0.00039464262401908
attr interpolationmode none
attr title "ping round-trip time, mean"
attr unit s
scalar StarLAN.host[2].pingApp[4] "Pings sent" 379
scalar StarLAN.host[2].pingApp[4] "ping loss rate (%)" 0
scalar StarLAN.host[2].pingApp[4] "ping out-of-order rate (%)" 0
scalar StarLAN.host[2].pingApp[4] pingRxSeq:count 285
attr interpolationmode none
attr title "ping rx seq, count"
scalar StarLAN.host[2].pingApp[4] pingTxSeq:count 285
attr interpolationmode none
attr title "ping tx seq, count"
scalar StarLAN.host[2].pingApp[4] numOutOfOrderArrivals:last nan
attr interpolationmode none
attr title "ping out-of-order arrivals, last"
scalar StarLAN.host[2].pingApp[4] numLost:last nan
attr interpolationmode none
attr title "pings lost, last"
scalar StarLAN.host[2].pingApp[4] rtt:mean 0.00019490891694048
attr interpolationmode none
attr title "ping round-trip time, mean"
attr unit s
scalar StarLAN.host[2].pingApp[5] "Pings sent" 370
scalar StarLAN.host[2].pingApp[5] "ping loss rate (%)" 0
scalar StarLAN.host[2].pingApp[5] "ping out-of-order rate (%)" 0
scalar StarLAN.host[2].pingApp[5] pingRxSeq:count 286
attr interpolationmode none
attr title "ping rx seq, count"
scalar StarLAN.host[2].pingApp[5] pingTxSeq:count 286
attr interpolationmode none
attr title "ping tx seq, count"
scalar StarLAN.host[2].pingApp[5] numOutOfOrderArrivals:last nan
attr interpolationmode none
attr title "ping out-of-order arrivals, last"
scalar StarLAN.host[2].pingApp[5] numLost:last nan
attr interpolationmode none
attr title "pings lost, last"
scalar StarLAN.host[2].pingApp[5] rtt:mean 0.00011557229203053
attr interpolationmode none
attr title "ping round-trip time, mean"
attr unit s
scalar StarLAN.host[2].pingApp[6] "Pings sent" 411
scalar StarLAN.host[2].pingApp[6] "ping loss rate (%)" 0
scalar StarLAN.host[2].pingApp[6] "ping out-of-order rate (%)" 0
scalar StarLAN.host[2].pingApp[6] pingRxSeq:count 307
attr interpolationmode none
attr title "ping rx seq, count"
scalar StarLAN.host[2].pingApp[6] pingTxSeq:count 307
attr interpolationmode none
attr title "ping tx seq, count"
scalar StarLAN.host[2].pingApp[6] numOutOfOrderArrivals:last nan
attr interpolationmode none
attr title "ping out-of-order arrivals, last"
scalar StarLAN.host[2].pingApp[6] numLost:last nan
attr interpolationmode none
attr title "pings lost, last"
scalar StarLAN.host[2].pingApp[6] rtt:mean 0.00017586198525843
attr interpolationmode none
attr title "ping round-trip time, mean"
attr unit s
scalar StarLAN.host[2].pingApp[7] "Pings sent" 391
scalar StarLAN.host[2].pingApp[7] "ping loss rate (%)" 0
scalar StarLAN.host[2].pingApp[7] "ping out-of-order rate (%)" 0
scalar StarLAN.host[2].pingApp[7] pingRxSeq:count 296
attr interpolationmode none
attr title "ping rx seq, count"
scalar StarLAN.host[2].pingApp[7] pingTxSeq:count 296
attr interpolationmode none
attr title "ping tx seq, count"
scalar StarLAN.host[2].pingApp[7] numOutOfOrderArrivals:last nan
attr interpolationmode none
attr title "ping out-of-order arrivals, last"
scalar StarLAN.host[2].pingApp[7] numLost:last nan
attr interpolationmode none
attr title "pings lost, last"
scalar StarLAN.host[2].pingApp[7] rtt:mean 0.00023223587954199
attr interpolationmode none
attr title "ping round-trip time, mean"
attr unit s
scalar StarLAN.host[2].pingApp[8] "Pings sent" 382
scalar StarLAN.host[2].pingApp[8] "ping loss rate (%)" 0
scalar StarLAN.host[2].pingApp[8] "ping out-of-order rate (%)" 0
scalar StarLAN.host[2].pingApp[8] pingRxSeq:count 289
attr interpolationmode none
attr title "ping rx seq, count"
scalar StarLAN.host[2].pingApp[8] pingTxSeq:count 289
attr interpolationmode none
attr title "ping tx seq, count"
scalar StarLAN.host[2].pingApp[8] numOutOfOrderArrivals:last nan
attr interpolationmode none
attr title "ping out-of-order arrivals, last"
scalar StarLAN.host[2].pingApp[8] numLost:last nan
attr interpolationmode none
attr title "pings lost, last"
scalar StarLAN.host[2].pingApp[8] rtt:mean 0.00019148337549804
attr interpolationmode none
attr title "ping round-trip time, mean"
attr unit s
scalar StarLAN.host[2].pingApp[9] "Pings sent" 387
scalar StarLAN.host[2].pingApp[9] "ping loss rate (%)" 0
scalar StarLAN.host[2].pingApp[9] "ping out-of-order rate (%)" 0
scalar StarLAN.host[2].pingApp[9] pingRxSeq:count 288
attr interpolationmode none
attr title "ping rx seq, count"
scalar StarLAN.host[2].pingApp[9] pingTxSeq:count 288
attr interpolationmode none
attr title "ping tx seq, count"
scalar StarLAN.host[2].pingApp[9] numOutOfOrderArrivals:last nan
attr interpolationmode none
attr title "ping out-of-order arrivals, last"
scalar StarLAN.host[2].pingApp[9] numLost:last nan
attr interpolationmode none
attr title "pings lost, last"
scalar StarLAN.host[2].pingApp[9] rtt:mean 0.0002749078263622
attr interpolationmode none
attr title "ping round-trip time, mean"
attr unit s
scalar StarLAN.host[2].pingApp[10] "Pings sent" 370
scalar StarLAN.host[2].pingApp[10] "ping loss rate (%)" 0
scalar StarLAN.host[2].pingApp[10] "ping out-of-order rate (%)" 0
scalar StarLAN.host[2].pingApp[10] pingRxSeq:count 279
attr interpolationmode none
attr title "ping rx seq, count"
scalar StarLAN.host[2].pingApp[10] pingTxSeq:count 279
attr interpolationmode none
attr title "ping tx seq, count"
scalar StarLAN.host[2].pingApp[10] numOutOfOrderArrivals:last nan
attr interpolationmode none
attr title "ping out-of-order arrivals, last"
scalar StarLAN.host[2].pingApp[10] numLost:last nan
attr interpolationmode none
attr title "pings lost, last"
scalar StarLAN.host[2].pingApp[10] rtt:mean 0.00042305633481496
attr interpolationmode none
attr title "ping round-trip time, mean"
attr unit s
scalar StarLAN.host[2].pingApp[11] "Pings sent" 384
scalar StarLAN.host[2].pingApp[11] "ping loss rate (%)" 0
scalar StarLAN.host[2].pingApp[11] "ping out-of-order rate (%)" 0.26041666666667
scalar StarLAN.host[2].pingApp[11] pingRxSeq:count 297
attr interpolationmode none
attr title "ping rx seq, count"
scalar StarLAN.host[2].pingApp[11] pingTxSeq:count 297
attr interpolationmode none
attr title "ping tx seq, count"
scalar StarLAN.host[2].pingApp[11] numOutOfOrderArrivals:last 1
attr interpolationmode none
attr title "ping out-of-order arrivals, last"
scalar StarLAN.host[2].pingApp[11] numLost:last 0
attr interpolationmode none
attr title "pings lost, last"
scalar StarLAN.host[2].pingApp[11] rtt:mean 0.0001184024439962
attr interpolationmode none
attr title "ping round-trip time, mean"
attr unit s
scalar StarLAN.host[2].pingApp[12] "Pings sent" 393
scalar StarLAN.host[2].pingApp[12] "ping loss rate (%)" 0
scalar StarLAN.host[2].pingApp[12] "ping out-of-order rate (%)" 0
scalar StarLAN.host[2].pingApp[12] pingRxSeq:count 309
attr interpolationmode none
attr title "ping rx seq, count"
scalar StarLAN.host[2].pingApp[12] pingTxSeq:count 309
attr interpolationmode none
attr title "ping tx seq, count"
scalar StarLAN.host[2].pingApp[12] numOutOfOrderArrivals:last nan
attr interpolationmode none
attr title "ping out-of-order arrivals, last"
scalar StarLAN.host[2].pingApp[12] numLost:last nan
attr interpolationmode none
attr title "pings lost, last"
scalar StarLAN.host[2].pingApp[12] rtt:mean 0.00036724797007519
attr interpolationmode none
attr title "ping round-trip time, mean"
attr unit s
scalar StarLAN.host[2].pingApp[13] "Pings sent" 378
scalar StarLAN.host[2].pingApp[13] "ping loss rate (%)" 0
scalar StarLAN.host[2].pingApp[13] "ping out-of-order rate (%)" 0
scalar StarLAN.host[2].pingApp[13] pingRxSeq:count 285
attr interpolationmode none
attr title "ping rx seq, count"
scalar StarLAN.host[2].pingApp[13] pingTxSeq:count 285
attr interpolationmode none
attr title "ping tx seq, count"
scalar StarLAN.host[2].pingApp[13] numOutOfOrderArrivals:last nan
attr interpolationmode none
attr title "ping out-of-order arrivals, last"
scalar StarLAN.host[2].pingApp[13] numLost:last nan
attr interpolationmode none
attr title "pings lost, last"
scalar StarLAN.host[2].pingApp[13] rtt:mean 0.00024735211779923
attr interpolationmode none
attr title "ping round-trip time, mean"
attr unit s
scalar StarLAN.host[2].pingApp[14] "Pings sent" 389
scalar StarLAN.host[2].pingApp[14] "ping loss rate (%)" 0
scalar StarLAN.host[2].pingApp[14] "ping out-of-order rate (%)" 0
scalar StarLAN.host[2].pingApp[14] pingRxSeq:count 282
attr interpolationmode none
attr title "ping rx seq, count"
scalar StarLAN.host[2].pingApp[14] pingTxSeq:count 282
attr interpolationmode none
attr title "ping tx seq, count"
scalar StarLAN.host[2].pingApp[14] numOutOfOrderArrivals:last nan
attr interpolationmode none
attr title "ping out-of-order arrivals, last"
scalar StarLAN.host[2].pingApp[14] numLost:last nan
attr interpolationmode none
attr title "pings lost, last"
scalar StarLAN.host[2].pingApp[14] rtt:mean 0.00023303006550588
attr interpolationmode none
attr title "ping round-trip time, mean"
attr unit s
scalar StarLAN.host[2].pingApp[15] "Pings sent" 381
scalar StarLAN.host[2].pingApp[15] "ping loss rate (%)" 0
scalar StarLAN.host[2].pingApp[15] "ping out-of-order rate (%)" 0
scalar StarLAN.host[2].pingApp[15] pingRxSeq:count 289
attr interpolationmode none
attr title "ping rx seq, count"
scalar StarLAN.host[2].pingApp[15] pingTxSeq:count 289
attr interpolationmode none
attr title "ping tx seq, count"
scalar StarLAN.host[2].pingApp[15] numOutOfOrderArrivals:last nan
attr interpolationmode none
attr title "ping out-of-order arrivals, last"
scalar StarLAN.host[2].pingApp[15] numLost:last nan
attr interpolationmode none
attr title "pings lost, last"
scalar StarLAN.host[2].pingApp[15] rtt:mean 0.0003852955438144
attr interpolationmode none
attr title "ping round-trip time, mean"
attr unit s
scalar StarLAN.host[3].networkLayer.arp sentReply:count 0
attr title "ARP replies sent, count"
scalar StarLAN.host[3].networkLayer.arp sentReq:count 0
attr title "ARP request sent, count"
scalar StarLAN.host[3].networkLayer.arp failedARPResolution:count 0
attr title "ARP failed resolutions, count"
scalar StarLAN.host[3].networkLayer.arp completedARPResolution:count 0
attr title "ARP completed resolutions, count"
scalar StarLAN.host[3].networkLayer.arp initiatedARPResolution:count 0
attr title "ARP initiated resolutions, count"
scalar StarLAN.host[3].lo0.lo droppedPkBitError:count 0
attr interpolationmode none
attr source dropPkBitError
attr title "packets dropped/bit error, count"
scalar StarLAN.host[3].lo0.lo droppedPkBitError:sum(packetBytes) 0
attr interpolationmode none
attr source dropPkBitError
attr title "packets dropped/bit error, sum(packetBytes)"
scalar StarLAN.host[3].lo0.lo rcvdPkFromHL:count 1424
attr interpolationmode none
attr source packetReceivedFromUpper
attr title "packets received from higher layer, count"
scalar StarLAN.host[3].lo0.lo rcvdPkFromHL:sum(packetBytes) 933478
attr interpolationmode none
attr source packetReceivedFromUpper
attr title "packets received from higher layer, sum(packetBytes)"
scalar StarLAN.host[3].lo0.lo passedUpPk:count 1424
attr interpolationmode none
attr source packetSentToUpper
attr title "packets passed to higher layer, count"
scalar StarLAN.host[3].lo0.lo passedUpPk:sum(packetBytes) 933478
attr interpolationmode none
attr source packetSentToUpper
attr title "packets passed to higher layer, sum(packetBytes)"
scalar StarLAN.host[3].eth[0].queue.pauseQueue queueLength:max nan
attr interpolationmode sample-hold
attr title "queue length, max"
scalar StarLAN.host[3].eth[0].queue.pauseQueue queueLength:timeavg nan
attr interpolationmode sample-hold
attr title "queue length, timeavg"
statistic StarLAN.host[3].eth[0].queue.pauseQueue queueingTime:histogram
field count 0
field mean nan
field stddev nan
field min nan
field max nan
field sum 0
field sqrsum 0
attr interpolationmode none
attr title "queueing time, histogram"
bin	-inf	0
bin	-0.5	0
bin	-0.46666666666667	0
bin	-0.43333333333333	0
bin	-0.4	0
bin	-0.36666666666667	0
bin	-0.33333333333333	0
bin	-0.3	0
bin	-0.26666666666667	0
bin	-0.23333333333333	0
bin	-0.2	0
bin	-0.16666666666667	0
bin	-0.13333333333333	0
bin	-0.1	0
bin	-0.066666666666667	0
bin	-0.033333333333333	0
bin	0	0
bin	0.033333333333333	0
bin	0.066666666666667	0
bin	0.1	0
bin	0.13333333333333	0
bin	0.16666666666667	0
bin	0.2	0
bin	0.23333333333333	0
bin	0.26666666666667	0
bin	0.3	0
bin	0.33333333333333	0
bin	0.36666666666667	0
bin	0.4	0
bin	0.43333333333333	0
bin	0.46666666666667	0
bin	0.5	0
scalar StarLAN.host[3].eth[0].queue.pauseQueue dropPk:count 0
attr interpolationmode none
attr source dropPkByQueue
attr title "dropped packets, count"
scalar StarLAN.host[3].eth[0].queue.pauseQueue dropPk:sum(packetBytes) 0
attr interpolationmode none
attr source dropPkByQueue
attr title "dropped packets, sum(packetBytes)"
scalar StarLAN.host[3].eth[0].queue.pauseQueue rcvdPk:count 0
attr interpolationmode none
attr title "received packets, count"
scalar StarLAN.host[3].eth[0].queue.pauseQueue rcvdPk:sum(packetBytes) 0
attr interpolationmode none
attr title "received packets, sum(packetBytes)"
scalar StarLAN.host[3].eth[0].queue.dataQueue queueLength:max 4
attr interpolationmode sample-hold
attr title "queue length, max"
scalar StarLAN.host[3].eth[0].queue.dataQueue queueLength:timeavg 0.028748624097641
attr interpolationmode sample-hold
attr title "queue length, timeavg"
statistic StarLAN.host[3].eth[0].queue.dataQueue queueingTime:histogram
field count 12954
field mean 3.3280309905592e-005
field stddev 4.5356286344589e-005
field min 0
field max 0.00027736
field sum 0.43111313451704
field sqrsum 4.0994395906322e-005
attr interpolationmode none
attr title "queueing time, histogram"
bin	-inf	0
bin	-0.0001092	0
bin	-9.464e-005	0
bin	-8.008e-005	0
bin	-6.552e-005	0
bin	-5.096e-005	0
bin	-3.64e-005	0
bin	-2.184e-005	0
bin	-7.28e-006	8078
bin	7.28e-006	57
bin	2.184e-005	57
bin	3.64e-005	44
bin	5.096e-005	51
bin	6.552e-005	34
bin	8.008e-005	4218
bin	9.464e-005	51
bin	0.0001092	43
bin	0.00012376	35
bin	0.00013832	22
bin	0.00015288	15
bin	0.00016744	222
bin	0.000182	8
bin	0.00019656	4
bin	0.00021112	6
bin	0.00022568	5
bin	0.00024024	1
bin	0.0002548	2
bin	0.00026936	1
bin	0.00028392	0
bin	0.00029848	0
bin	0.00031304	0
bin	0.0003276	0
scalar StarLAN.host[3].eth[0].queue.dataQueue dropPk:count 0
attr interpolationmode none
attr source dropPkByQueue
attr title "dropped packets, count"
scalar StarLAN.host[3].eth[0].queue.dataQueue dropPk:sum(packetBytes) 0
attr interpolationmode none
attr source dropPkByQueue
attr title "dropped packets, sum(packetBytes)"
scalar StarLAN.host[3].eth[0].queue.dataQueue rcvdPk:count 12954
attr interpolationmode none
attr title "received packets, count"
scalar StarLAN.host[3].eth[0].queue.dataQueue rcvdPk:sum(packetBytes) 8900736
attr interpolationmode none
attr title "received packets, sum(packetBytes)"
scalar StarLAN.host[3].eth[0].mac "simulated time" 20
scalar StarLAN.host[3].eth[0].mac full-duplex 1
scalar StarLAN.host[3].eth[0].mac "frames/sec sent" 856
scalar StarLAN.host[3].eth[0].mac "frames/sec rcvd" 857.8
scalar StarLAN.host[3].eth[0].mac "bits/sec sent" 4704371.2
scalar StarLAN.host[3].eth[0].mac "bits/sec rcvd" 4705292.8
scalar StarLAN.host[3].eth[0].mac "rx channel idle (%)" 95.239808
scalar StarLAN.host[3].eth[0].mac "rx channel utilization (%)" 4.760192
scalar StarLAN.host[3].eth[0].mac rxPkFromHL:count 12954
attr interpolationmode none
attr source rxPkFromHL
attr title "packet bytes from higher layer, count"
scalar StarLAN.host[3].eth[0].mac rxPkFromHL:sum(packetBytes) 8900736
attr interpolationmode none
attr source rxPkFromHL
attr title "packet bytes from higher layer, sum(packetBytes)"
scalar StarLAN.host[3].eth[0].mac rxPausePkUnits:count 0
attr interpolationmode none
attr title "pause units received, count"
scalar StarLAN.host[3].eth[0].mac rxPausePkUnits:sum 0
attr interpolationmode none
attr title "pause units received, sum"
scalar StarLAN.host[3].eth[0].mac txPausePkUnits:count 0
attr interpolationmode none
attr title "pause units sent, count"
scalar StarLAN.host[3].eth[0].mac txPausePkUnits:sum 0
attr interpolationmode none
attr title "pause units sent, sum"
scalar StarLAN.host[3].eth[0].mac txPk:count 12954
attr interpolationmode none
attr source txPk
attr title "packets transmitted, count"
scalar StarLAN.host[3].eth[0].mac txPk:sum(packetBytes) 8900736
attr interpolationmode none
attr source txPk
attr title "packets transmitted, sum(packetBytes)"
scalar StarLAN.host[3].eth[0].mac droppedPkNotForUs:count 0
attr interpolationmode none
attr source dropPkNotForUs
attr title "packets dropped/not for us, count"
scalar StarLAN.host[3].eth[0].mac droppedPkNotForUs:sum(packetBytes) 0
attr interpolationmode none
attr source dropPkNotForUs
attr title "packets dropped/not for us, sum(packetBytes)"
scalar StarLAN.host[3].eth[0].mac droppedPkBitError:count 0
attr interpolationmode none
attr source dropPkBitError
attr title "packets dropped/bit error, count"
scalar StarLAN.host[3].eth[0].mac droppedPkBitError:sum(packetBytes) 0
attr interpolationmode none
attr source dropPkBitError
attr title "packets dropped/bit error, sum(packetBytes)"
scalar StarLAN.host[3].eth[0].mac droppedPkIfaceDown:count 0
attr interpolationmode none
attr source dropPkIfaceDown
attr title "packets dropped/interface down, count"
scalar StarLAN.host[3].eth[0].mac droppedPkIfaceDown:sum(packetBytes) 0
attr interpolationmode none
attr source dropPkIfaceDown
attr title "packets dropped/interface down, sum(packetBytes)"
scalar StarLAN.host[3].eth[0].mac rxPkOk:count 12954
attr interpolationmode none
attr source rxPkOk
attr title "packets received OK, count"
scalar StarLAN.host[3].eth[0].mac rxPkOk:sum(packetBytes) 8900736
attr interpolationmode none
attr source rxPkOk
attr title "packets received OK, sum(packetBytes)"
scalar StarLAN.host[3].eth[0].mac passedUpPk:count 12954
attr interpolationmode none
attr source packetSentToUpper
attr title "packets passed to higher layer, count"
scalar StarLAN.host[3].eth[0].mac passedUpPk:sum(packetBytes) 8900736
attr interpolationmode none
attr source packetSentToUpper
attr title "packets passed to higher layer, sum(packetBytes)"
scalar StarLAN.host[3].eth[0].encap pauseSent:count 0
attr title "pause sent, count"
scalar StarLAN.host[3].eth[0].encap pauseSent:sum 0
attr title "pause sent, sum"
scalar StarLAN.host[3].eth[0].encap decapPk:count 12954
attr interpolationmode none
attr source decapPk
attr title "packets decapsulated, count"
scalar StarLAN.host[3].eth[0].encap decapPk:sum(packetBytes) 8664915
attr interpolationmode none
attr source decapPk
attr title "packets decapsulated, sum(packetBytes)"
scalar StarLAN.host[3].eth[0].encap encapPk:count 12954
attr interpolationmode none
attr source encapPk
attr title "packets encapsulated, count"
scalar StarLAN.host[3].eth[0].encap encapPk:sum(packetBytes) 8664915
attr interpolationmode none
attr source encapPk
attr title "packets encapsulated, sum(packetBytes)"
scalar StarLAN.host[3].pingApp[0] "Pings sent" 373
scalar StarLAN.host[3].pingApp[0] "ping loss rate (%)" 0
scalar StarLAN.host[3].pingApp[0] "ping out-of-order rate (%)" 0
scalar StarLAN.host[3].pingApp[0] pingRxSeq:count 285
attr interpolationmode none
attr title "ping rx seq, count"
scalar StarLAN.host[3].pingApp[0] pingTxSeq:count 285
attr interpolationmode none
attr title "ping tx seq, count"
scalar StarLAN.host[3].pingApp[0] numOutOfOrderArrivals:last nan
attr interpolationmode none
attr title "ping out-of-order arrivals, last"
scalar StarLAN.host[3].pingApp[0] numLost:last nan
attr interpolationmode none
attr title "pings lost, last"
scalar StarLAN.host[3].pingApp[0] rtt:mean 0.00035937465242745
attr interpolationmode none
attr title "ping round-trip time, mean"
attr unit s
scalar StarLAN.host[3].pingApp[1] "Pings sent" 394
scalar StarLAN.host[3].pingApp[1] "ping loss rate (%)" 0
scalar StarLAN.host[3].pingApp[1] "ping out-of-order rate (%)" 0
scalar StarLAN.host[3].pingApp[1] pingRxSeq:count 303
attr interpolationmode none
attr title "ping rx seq, count"
scalar StarLAN.host[3].pingApp[1] pingTxSeq:count 303
attr interpolationmode none
attr title "ping tx seq, count"
scalar StarLAN.host[3].pingApp[1] numOutOfOrderArrivals:last nan
attr interpolationmode none
attr title "ping out-of-order arrivals, last"
scalar StarLAN.host[3].pingApp[1] numLost:last nan
attr interpolationmode none
attr title "pings lost, last"
scalar StarLAN.host[3].pingApp[1] rtt:mean 0.00022624979606383
attr interpolationmode none
attr title "ping round-trip time, mean"
attr unit s
scalar StarLAN.host[3].pingApp[2] "Pings sent" 389
scalar StarLAN.host[3].pingApp[2] "ping loss rate (%)" 0
scalar StarLAN.host[3].pingApp[2] "ping out-of-order rate (%)" 0
scalar StarLAN.host[3].pingApp[2] pingRxSeq:count 290
attr interpolationmode none
attr title "ping rx seq, count"
scalar StarLAN.host[3].pingApp[2] pingTxSeq:count 290
attr interpolationmode none
attr title "ping tx seq, count"
scalar StarLAN.host[3].pingApp[2] numOutOfOrderArrivals:last nan
attr interpolationmode none
attr title "ping out-of-order arrivals, last"
scalar StarLAN.host[3].pingApp[2] numLost:last nan
attr interpolationmode none
attr title "pings lost, last"
scalar StarLAN.host[3].pingApp[2] rtt:mean 0.00026708029802652
attr interpolationmode none
attr title "ping round-trip time, mean"
attr unit s
scalar StarLAN.host[3].pingApp[3] "Pings sent" 390
scalar StarLAN.host[3].pingApp[3] "ping loss rate (%)" 0
scalar StarLAN.host[3].pingApp[3] "ping out-of-order rate (%)" 0
scalar StarLAN.host[3].pingApp[3] pingRxSeq:count 288
attr interpolationmode none
attr title "ping rx seq, count"
scalar StarLAN.host[3].pingApp[3] pingTxSeq:count 288
attr interpolationmode none
attr title "ping tx seq, count"
scalar StarLAN.host[3].pingApp[3] numOutOfOrderArrivals:last nan
attr interpolationmode none
attr title "ping out-of-order arrivals, last"
scalar StarLAN.host[3].pingApp[3] numLost:last nan
attr interpolationmode none
attr title "pings lost, last"
scalar StarLAN.host[3].pingApp[3] rtt:mean 0.00037607797037647
attr interpolationmode none
attr title "ping round-trip time, mean"
attr unit s
scalar StarLAN.host[3].pingApp[4] "Pings sent" 387
scalar StarLAN.host[3].pingApp[4] "ping loss rate (%)" 0
scalar StarLAN.host[3].pingApp[4] "ping out-of-order rate (%)" 0
scalar StarLAN.host[3].pingApp[4] pingRxSeq:count 299
attr interpolationmode none
attr title "ping rx seq, count"
scalar StarLAN.host[3].pingApp[4] pingTxSeq:count 299
attr interpolationmode none
attr title "ping tx seq, count"
scalar StarLAN.host[3].pingApp[4] numOutOfOrderArrivals:last nan
attr interpolationmode none
[...]
scalar StarLAN.router.eth[7].queue.dataQueue queueLength:max 5
attr interpolationmode sample-hold
attr title "queue length, max"
scalar StarLAN.router.eth[7].queue.dataQueue queueLength:timeavg 0.020350071222652
attr interpolationmode sample-hold
attr title "queue length, timeavg"
statistic StarLAN.router.eth[7].queue.dataQueue queueingTime:histogram
field count 14221
field mean 2.1464115327684e-005
field stddev 3.0286219601185e-005
field min 0
field max 0.00027288
field sum 0.305241184075
field sqrsum 1.9595099467482e-005
attr interpolationmode none
attr title "queueing time, histogram"
bin	-inf	0
bin	-4.1909755e-005	0
bin	-3.6321787666667e-005	0
bin	-3.0733820333333e-005	0
bin	-2.5145853e-005	0
bin	-1.9557885666667e-005	0
bin	-1.3969918333333e-005	0
bin	-8.381951e-006	0
bin	-2.7939836666667e-006	8597
bin	2.7939836666667e-006	25
bin	8.381951e-006	83
bin	1.3969918333333e-005	85
bin	1.9557885666667e-005	384
bin	2.5145853e-005	484
bin	3.0733820333333e-005	360
bin	3.6321787666667e-005	99
bin	4.1909755e-005	441
bin	4.7497722333333e-005	609
bin	5.3085689666667e-005	628
bin	5.8673657e-005	576
bin	6.4261624333333e-005	910
bin	6.9849591666667e-005	495
bin	7.5437559e-005	193
bin	8.1025526333333e-005	28
bin	8.6613493666667e-005	14
bin	9.2201461e-005	18
bin	9.7789428333333e-005	23
bin	0.00010337739566667	19
bin	0.000108965363	13
bin	0.00011455333033333	11
bin	0.00012014129766667	17
bin	0.000125729265	109
scalar StarLAN.router.eth[7].queue.dataQueue dropPk:count 0
attr interpolationmode none
attr source dropPkByQueue
attr title "dropped packets, count"
scalar StarLAN.router.eth[7].queue.dataQueue dropPk:sum(packetBytes) 0
attr interpolationmode none
attr source dropPkByQueue
attr title "dropped packets, sum(packetBytes)"
scalar StarLAN.router.eth[7].queue.dataQueue rcvdPk:count 14221
attr interpolationmode none
attr title "received packets, count"
scalar StarLAN.router.eth[7].queue.dataQueue rcvdPk:sum(packetBytes) 10078099
attr interpolationmode none
attr title "received packets, sum(packetBytes)"
scalar StarLAN.router.eth[7].mac "simulated time" 20
scalar StarLAN.router.eth[7].mac full-duplex 1
scalar StarLAN.router.eth[7].mac "frames/sec sent" 944.4
scalar StarLAN.router.eth[7].mac "frames/sec rcvd" 942.6
scalar StarLAN.router.eth[7].mac "bits/sec sent" 5338497.6
scalar StarLAN.router.eth[7].mac "bits/sec rcvd" 5337576
scalar StarLAN.router.eth[7].mac "rx channel idle (%)" 94.6020976
scalar StarLAN.router.eth[7].mac "rx channel utilization (%)" 5.3979024
scalar StarLAN.router.eth[7].mac "rx channel collision (%)" 0
scalar StarLAN.router.eth[7].mac collisions 0
scalar StarLAN.router.eth[7].mac backoffs 0
scalar StarLAN.router.eth[7].mac backoff:count 0
attr interpolationmode none
attr title "backoff, count"
scalar StarLAN.router.eth[7].mac collision:count 0
attr interpolationmode none
attr title "collision, count"
scalar StarLAN.router.eth[7].mac rxPkFromHL:count 14221
attr interpolationmode none
attr source rxPkFromHL
attr title "packet bytes from higher layer, count"
scalar StarLAN.router.eth[7].mac rxPkFromHL:sum(packetBytes) 10078099
attr interpolationmode none
attr source rxPkFromHL
attr title "packet bytes from higher layer, sum(packetBytes)"
scalar StarLAN.router.eth[7].mac rxPausePkUnits:count 0
attr interpolationmode none
attr title "pause units received, count"
scalar StarLAN.router.eth[7].mac rxPausePkUnits:sum 0
attr interpolationmode none
attr title "pause units received, sum"
scalar StarLAN.router.eth[7].mac txPausePkUnits:count 0
attr interpolationmode none
attr title "pause units sent, count"
scalar StarLAN.router.eth[7].mac txPausePkUnits:sum 0
attr interpolationmode none
attr title "pause units sent, sum"
scalar StarLAN.router.eth[7].mac txPk:count 14221
attr interpolationmode none
attr source txPk
attr title "packets transmitted, count"
scalar StarLAN.router.eth[7].mac txPk:sum(packetBytes) 10078099
attr interpolationmode none
attr source txPk
attr title "packets transmitted, sum(packetBytes)"
scalar StarLAN.router.eth[7].mac droppedPkNotForUs:count 0
attr interpolationmode none
attr source dropPkNotForUs
attr title "packets dropped/not for us, count"
scalar StarLAN.router.eth[7].mac droppedPkNotForUs:sum(packetBytes) 0
attr interpolationmode none
attr source dropPkNotForUs
attr title "packets dropped/not for us, sum(packetBytes)"
scalar StarLAN.router.eth[7].mac droppedPkBitError:count 0
attr interpolationmode none
attr source dropPkBitError
attr title "packets dropped/bit error, count"
scalar StarLAN.router.eth[7].mac droppedPkBitError:sum(packetBytes) 0
attr interpolationmode none
attr source dropPkBitError
attr title "packets dropped/bit error, sum(packetBytes)"
scalar StarLAN.router.eth[7].mac droppedPkIfaceDown:count 0
attr interpolationmode none
attr source dropPkIfaceDown
attr title "packets dropped/interface down, count"
scalar StarLAN.router.eth[7].mac droppedPkIfaceDown:sum(packetBytes) 0
attr interpolationmode none
attr source dropPkIfaceDown
attr title "packets dropped/interface down, sum(packetBytes)"
scalar StarLAN.router.eth[7].mac rxPkOk:count 14221
attr interpolationmode none
attr source rxPkOk
attr title "packets received OK, count"
scalar StarLAN.router.eth[7].mac rxPkOk:sum(packetBytes) 10078099
attr interpolationmode none
attr source rxPkOk
attr title "packets received OK, sum(packetBytes)"
scalar StarLAN.router.eth[7].mac passedUpPk:count 14221
attr interpolationmode none
attr source packetSentToUpper
attr title "packets passed to higher layer, count"
scalar StarLAN.router.eth[7].mac passedUpPk:sum(packetBytes) 10078099
attr interpolationmode none
attr source packetSentToUpper
attr title "packets passed to higher layer, sum(packetBytes)"
scalar StarLAN.router.eth[8].queue.pauseQueue queueLength:max nan
attr interpolationmode sample-hold
attr title "queue length, max"
scalar StarLAN.router.eth[8].queue.pauseQueue queueLength:timeavg nan
attr interpolationmode sample-hold
attr title "queue length, timeavg"
statistic StarLAN.router.eth[8].queue.pauseQueue queueingTime:histogram
field count 0
field mean nan
field stddev nan
field min nan
field max nan
field sum 0
field sqrsum 0
attr interpolationmode none
attr title "queueing time, histogram"
bin	-inf	0
bin	-0.5	0
bin	-0.46666666666667	0
bin	-0.43333333333333	0
bin	-0.4	0
bin	-0.36666666666667	0
bin	-0.33333333333333	0
bin	-0.3	0
bin	-0.26666666666667	0
bin	-0.23333333333333	0
bin	-0.2	0
bin	-0.16666666666667	0
bin	-0.13333333333333	0
bin	-0.1	0
bin	-0.066666666666667	0
bin	-0.033333333333333	0
bin	0	0
bin	0.033333333333333	0
bin	0.066666666666667	0
bin	0.1	0
bin	0.13333333333333	0
bin	0.16666666666667	0
bin	0.2	0
bin	0.23333333333333	0
bin	0.26666666666667	0
bin	0.3	0
bin	0.33333333333333	0
bin	0.36666666666667	0
bin	0.4	0
bin	0.43333333333333	0
bin	0.46666666666667	0
bin	0.5	0
scalar StarLAN.router.eth[8].queue.pauseQueue dropPk:count 0
attr interpolationmode none
attr source dropPkByQueue
attr title "dropped packets, count"
scalar StarLAN.router.eth[8].queue.pauseQueue dropPk:sum(packetBytes) 0
attr interpolationmode none
attr source dropPkByQueue
attr title "dropped packets, sum(packetBytes)"
scalar StarLAN.router.eth[8].queue.pauseQueue rcvdPk:count 0
attr interpolationmode none
attr title "received packets, count"
scalar StarLAN.router.eth[8].queue.pauseQueue rcvdPk:sum(packetBytes) 0
attr interpolationmode none
attr title "received packets, sum(packetBytes)"
scalar StarLAN.router.eth[8].queue.dataQueue queueLength:max 5
attr interpolationmode sample-hold
attr title "queue length, max"
scalar StarLAN.router.eth[8].queue.dataQueue queueLength:timeavg 0.017263122872236
attr interpolationmode sample-hold
attr title "queue length, timeavg"
statistic StarLAN.router.eth[8].queue.dataQueue queueingTime:histogram
field count 13514
field mean 1.9159957155616e-005
field stddev 3.0103854230477e-005
field min 0
field max 0.000285578752
field sum 0.258927661001
field sqrsum 1.720709157135e-005
attr interpolationmode none
attr title "queueing time, histogram"
bin	-inf	0
bin	-8.004e-005	0
bin	-6.9368e-005	0
bin	-5.8696e-005	0
bin	-4.8024e-005	0
bin	-3.7352e-005	0
bin	-2.668e-005	0
bin	-1.6008e-005	0
bin	-5.336e-006	8701
bin	5.336e-006	117
bin	1.6008e-005	509
bin	2.668e-005	863
bin	3.7352e-005	504
bin	4.8024e-005	1000
bin	5.8696e-005	578
bin	6.9368e-005	956
bin	8.004e-005	61
bin	9.0712e-005	29
bin	0.000101384	42
bin	0.000112056	33
bin	0.000122728	26
bin	0.0001334	28
bin	0.000144072	20
bin	0.000154744	20
bin	0.000165416	11
bin	0.000176088	2
bin	0.00018676	4
bin	0.000197432	2
bin	0.000208104	2
bin	0.000218776	2
bin	0.000229448	1
bin	0.00024012	3
scalar StarLAN.router.eth[8].queue.dataQueue dropPk:count 0
attr interpolationmode none
attr source dropPkByQueue
attr title "dropped packets, count"
scalar StarLAN.router.eth[8].queue.dataQueue dropPk:sum(packetBytes) 0
attr interpolationmode none
attr source dropPkByQueue
attr title "dropped packets, sum(packetBytes)"
scalar StarLAN.router.eth[8].queue.dataQueue rcvdPk:count 13514
attr interpolationmode none
attr title "received packets, count"
scalar StarLAN.router.eth[8].queue.dataQueue rcvdPk:sum(packetBytes) 9972276
attr interpolationmode none
attr title "received packets, sum(packetBytes)"
scalar StarLAN.router.eth[8].mac "simulated time" 20
scalar StarLAN.router.eth[8].mac full-duplex 1
scalar StarLAN.router.eth[8].mac "frames/sec sent" 889.6
scalar StarLAN.router.eth[8].mac "frames/sec rcvd" 887.8
scalar StarLAN.router.eth[8].mac "bits/sec sent" 5247104.4
scalar StarLAN.router.eth[8].mac "bits/sec rcvd" 5246182.8
scalar StarLAN.router.eth[8].mac "rx channel idle (%)" 94.696998
scalar StarLAN.router.eth[8].mac "rx channel utilization (%)" 5.303002
scalar StarLAN.router.eth[8].mac "rx channel collision (%)" 0
scalar StarLAN.router.eth[8].mac collisions 0
scalar StarLAN.router.eth[8].mac backoffs 0
scalar StarLAN.router.eth[8].mac backoff:count 0
attr interpolationmode none
attr title "backoff, count"
scalar StarLAN.router.eth[8].mac collision:count 0
attr interpolationmode none
attr title "collision, count"
scalar StarLAN.router.eth[8].mac rxPkFromHL:count 13514
attr interpolationmode none
attr source rxPkFromHL
attr title "packet bytes from higher layer, count"
scalar StarLAN.router.eth[8].mac rxPkFromHL:sum(packetBytes) 9972276
attr interpolationmode none
attr source rxPkFromHL
attr title "packet bytes from higher layer, sum(packetBytes)"
scalar StarLAN.router.eth[8].mac rxPausePkUnits:count 0
attr interpolationmode none
attr title "pause units received, count"
scalar StarLAN.router.eth[8].mac rxPausePkUnits:sum 0
attr interpolationmode none
attr title "pause units received, sum"
scalar StarLAN.router.eth[8].mac txPausePkUnits:count 0
attr interpolationmode none
attr title "pause units sent, count"
scalar StarLAN.router.eth[8].mac txPausePkUnits:sum 0
attr interpolationmode none
attr title "pause units sent, sum"
scalar StarLAN.router.eth[8].mac txPk:count 13514
attr interpolationmode none
attr source txPk
attr title "packets transmitted, count"
scalar StarLAN.router.eth[8].mac txPk:sum(packetBytes) 9972276
attr interpolationmode none
attr source txPk
attr title "packets transmitted, sum(packetBytes)"
scalar StarLAN.router.eth[8].mac droppedPkNotForUs:count 0
attr interpolationmode none
attr source dropPkNotForUs
attr title "packets dropped/not for us, count"
scalar StarLAN.router.eth[8].mac droppedPkNotForUs:sum(packetBytes) 0
attr interpolationmode none
attr source dropPkNotForUs
attr title "packets dropped/not for us, sum(packetBytes)"
scalar StarLAN.router.eth[8].mac droppedPkBitError:count 0
attr interpolationmode none
attr source dropPkBitError
attr title "packets dropped/bit error, count"
scalar StarLAN.router.eth[8].mac droppedPkBitError:sum(packetBytes) 0
attr interpolationmode none
attr source dropPkBitError
attr title "packets dropped/bit error, sum(packetBytes)"
scalar StarLAN.router.eth[8].mac droppedPkIfaceDown:count 0
attr interpolationmode none
attr source dropPkIfaceDown
attr title "packets dropped/interface down, count"
scalar StarLAN.router.eth[8].mac droppedPkIfaceDown:sum(packetBytes) 0
attr interpolationmode none
attr source dropPkIfaceDown
attr title "packets dropped/interface down, sum(packetBytes)"
scalar StarLAN.router.eth[8].mac rxPkOk:count 13514
attr interpolationmode none
attr source rxPkOk
attr title "packets received OK, count"
scalar StarLAN.router.eth[8].mac rxPkOk:sum(packetBytes) 9972276
attr interpolationmode none
attr source rxPkOk
attr title "packets received OK, sum(packetBytes)"
scalar StarLAN.router.eth[8].mac passedUpPk:count 13514
attr interpolationmode none
attr source packetSentToUpper
attr title "packets passed to higher layer, count"
scalar StarLAN.router.eth[8].mac passedUpPk:sum(packetBytes) 9972276
attr interpolationmode none
attr source packetSentToUpper
attr title "packets passed to higher layer, sum(packetBytes)"
scalar StarLAN.router.eth[9].queue.pauseQueue queueLength:max nan
attr interpolationmode sample-hold
attr title "queue length, max"
scalar StarLAN.router.eth[9].queue.pauseQueue queueLength:timeavg nan
attr interpolationmode sample-hold
attr title "queue length, timeavg"
statistic StarLAN.router.eth[9].queue.pauseQueue queueingTime:histogram
field count 0
field mean nan
field stddev nan
field min nan
field max nan
field sum 0
field sqrsum 0
attr interpolationmode none
attr title "queueing time, histogram"
bin	-inf	0
bin	-0.5	0
bin	-0.46666666666667	0
bin	-0.43333333333333	0
bin	-0.4	0
bin	-0.36666666666667	0
bin	-0.33333333333333	0
bin	-0.3	0
bin	-0.26666666666667	0
bin	-0.23333333333333	0
bin	-0.2	0
bin	-0.16666666666667	0
bin	-0.13333333333333	0
bin	-0.1	0
bin	-0.066666666666667	0
bin	-0.033333333333333	0
bin	0	0
bin	0.033333333333333	0
bin	0.066666666666667	0
bin	0.1	0
bin	0.13333333333333	0
bin	0.16666666666667	0
bin	0.2	0
bin	0.23333333333333	0
bin	0.26666666666667	0
bin	0.3	0
bin	0.33333333333333	0
bin	0.36666666666667	0
bin	0.4	0
bin	0.43333333333333	0
bin	0.46666666666667	0
bin	0.5	0
scalar StarLAN.router.eth[9].queue.pauseQueue dropPk:count 0
attr interpolationmode none
attr source dropPkByQueue
attr title "dropped packets, count"
scalar StarLAN.router.eth[9].queue.pauseQueue dropPk:sum(packetBytes) 0
attr interpolationmode none
attr source dropPkByQueue
attr title "dropped packets, sum(packetBytes)"
scalar StarLAN.router.eth[9].queue.pauseQueue rcvdPk:count 0
attr interpolationmode none
attr title "received packets, count"
scalar StarLAN.router.eth[9].queue.pauseQueue rcvdPk:sum(packetBytes) 0
attr interpolationmode none
attr title "received packets, sum(packetBytes)"
scalar StarLAN.router.eth[9].queue.dataQueue queueLength:max 5
attr interpolationmode sample-hold
attr title "queue length, max"
scalar StarLAN.router.eth[9].queue.dataQueue queueLength:timeavg 0.016543013195513
attr interpolationmode sample-hold
attr title "queue length, timeavg"
statistic StarLAN.router.eth[9].queue.dataQueue queueingTime:histogram
field count 13365
field mean 1.8564535632847e-005
field stddev 2.929997756287e-005
field min 0
field max 0.00028700791
field sum 0.248115018733
field sqrsum 1.6078982895121e-005
attr interpolationmode none
attr title "queueing time, histogram"
bin	-inf	0
bin	-7.056e-005	0
bin	-6.1152e-005	0
bin	-5.1744e-005	0
bin	-4.2336e-005	0
bin	-3.2928e-005	0
bin	-2.352e-005	0
bin	-1.4112e-005	0
bin	-4.704e-006	8558
bin	4.704e-006	332
bin	1.4112e-005	180
bin	2.352e-005	764
bin	3.2928e-005	266
bin	4.2336e-005	743
bin	5.1744e-005	873
bin	6.1152e-005	943
bin	7.056e-005	428
bin	7.9968e-005	60
bin	8.9376e-005	29
bin	9.8784e-005	36
bin	0.000108192	30
bin	0.0001176	27
bin	0.000127008	25
bin	0.000136416	24
bin	0.000145824	17
bin	0.000155232	11
bin	0.00016464	5
bin	0.000174048	3
bin	0.000183456	1
bin	0.000192864	2
bin	0.000202272	2
bin	0.00021168	6
scalar StarLAN.router.eth[9].queue.dataQueue dropPk:count 0
attr interpolationmode none
attr source dropPkByQueue
attr title "dropped packets, count"
scalar StarLAN.router.eth[9].queue.dataQueue dropPk:sum(packetBytes) 0
attr interpolationmode none
attr source dropPkByQueue
attr title "dropped packets, sum(packetBytes)"
scalar StarLAN.router.eth[9].queue.dataQueue rcvdPk:count 13365
attr interpolationmode none
attr title "received packets, count"
scalar StarLAN.router.eth[9].queue.dataQueue rcvdPk:sum(packetBytes) 9896662
attr interpolationmode none
attr title "received packets, sum(packetBytes)"
scalar StarLAN.router.eth[9].mac "simulated time" 20
scalar StarLAN.router.eth[9].mac full-duplex 1
scalar StarLAN.router.eth[9].mac "frames/sec sent" 879.95
scalar StarLAN.router.eth[9].mac "frames/sec rcvd" 878.15
scalar StarLAN.router.eth[9].mac "bits/sec sent" 5201182.8
scalar StarLAN.router.eth[9].mac "bits/sec rcvd" 5200261.2
scalar StarLAN.router.eth[9].mac "rx channel idle (%)" 94.7435372
scalar StarLAN.router.eth[9].mac "rx channel utilization (%)" 5.2564628
scalar StarLAN.router.eth[9].mac "rx channel collision (%)" 0
scalar StarLAN.router.eth[9].mac collisions 0
scalar StarLAN.router.eth[9].mac backoffs 0
scalar StarLAN.router.eth[9].mac backoff:count 0
attr interpolationmode none
attr title "backoff, count"
scalar StarLAN.router.eth[9].mac collision:count 0
attr interpolationmode none
attr title "collision, count"
scalar StarLAN.router.eth[9].mac rxPkFromHL:count 13365
attr interpolationmode none
attr source rxPkFromHL
attr title "packet bytes from higher layer, count"
scalar StarLAN.router.eth[9].mac rxPkFromHL:sum(packetBytes) 9896662
attr interpolationmode none
attr source rxPkFromHL
attr title "packet bytes from higher layer, sum(packetBytes)"
scalar StarLAN.router.eth[9].mac rxPausePkUnits:count 0
attr interpolationmode none
attr title "pause units received, count"
scalar StarLAN.router.eth[9].mac rxPausePkUnits:sum 0
attr interpolationmode none
attr title "pause units received, sum"
scalar StarLAN.router.eth[9].mac txPausePkUnits:count 0
attr interpolationmode none
attr title "pause units sent, count"
scalar StarLAN.router.eth[9].mac txPausePkUnits:sum 0
attr interpolationmode none
attr title "pause units sent, sum"
scalar StarLAN.router.eth[9].mac txPk:count 13365
attr interpolationmode none
attr source txPk
attr title "packets transmitted, count"
scalar StarLAN.router.eth[9].mac txPk:sum(packetBytes) 9896662
attr interpolationmode none
attr source txPk
attr title "packets transmitted, sum(packetBytes)"
scalar StarLAN.router.eth[9].mac droppedPkNotForUs:count 0
attr interpolationmode none
attr source dropPkNotForUs
attr title "packets dropped/not for us, count"
scalar StarLAN.router.eth[9].mac droppedPkNotForUs:sum(packetBytes) 0
attr interpolationmode none
attr source dropPkNotForUs
attr title "packets dropped/not for us, sum(packetBytes)"
scalar StarLAN.router.eth[9].mac droppedPkBitError:count 0
attr interpolationmode none
attr source dropPkBitError
attr title "packets dropped/bit error, count"
scalar StarLAN.router.eth[9].mac droppedPkBitError:sum(packetBytes) 0
attr interpolationmode none
attr source dropPkBitError
attr title "packets dropped/bit error, sum(packetBytes)"
scalar StarLAN.router.eth[9].mac droppedPkIfaceDown:count 0
attr interpolationmode none
attr source dropPkIfaceDown
attr title "packets dropped/interface down, count"
scalar StarLAN.router.eth[9].mac droppedPkIfaceDown:sum(packetBytes) 0
attr interpolationmode none
attr source dropPkIfaceDown
attr title "packets dropped/interface down, sum(packetBytes)"
scalar StarLAN.router.eth[9].mac rxPkOk:count 13365
attr interpolationmode none
attr source rxPkOk
attr title "packets received OK, count"
scalar StarLAN.router.eth[9].mac rxPkOk:sum(packetBytes) 9896662
attr interpolationmode none
attr source rxPkOk
attr title "packets received OK, sum(packetBytes)"
scalar StarLAN.router.eth[9].mac passedUpPk:count 13365
attr interpolationmode none
attr source packetSentToUpper
attr title "packets passed to higher layer, count"
scalar StarLAN.router.eth[9].mac passedUpPk:sum(packetBytes) 9896662
attr interpolationmode none
attr source packetSentToUpper
attr title "packets passed to higher layer, sum(packetBytes)"

