version 2
run StarLAN10-sendinterval-2-20180110-19:20:19-13868
attr configname StarLAN10-sendinterval
attr datetime 20180110-19:20:19
attr experiment StarLAN10-sendinterval
attr inifile StarLAN.ini
attr iterationvars $pa=128
attr iterationvarsf pa=128-
attr measurement $pa=128
attr network StarLAN
attr processid 13868
attr repetition 0
attr replication #0
attr resultdir results
attr runnumber 2
attr seedset 2
itervar pa 128
param *.numHosts 10
param **.datarate 10Mbps
param **.host[*].pingApp[*].sendInterval "truncnormal(100ms, 50ms)"
param **.host[*].pingApp[*].packetSize "truncnormal(1024B, 512B)"
param **.queueType "\"DropTailQueue\""
param **.frameCapacity 10
param **.mtu 1024B
param **.host[*].numPingApps 128
param **.host[*].pingApp[*].typename "\"PingApp\""
param **.host[*].pingApp[*].count 1
param **.host[*].pingApp[*].startTime "truncnormal(200ms, 100ms)"
param **.host[*].pingApp[*].destAddr "\"*\""

scalar StarLAN.host[0].networkLayer.arp sentReply:count 0
attr title "ARP replies sent, count"
scalar StarLAN.host[0].networkLayer.arp sentReq:count 0
attr title "ARP request sent, count"
scalar StarLAN.host[0].networkLayer.arp failedARPResolution:count 0
attr title "ARP failed resolutions, count"
scalar StarLAN.host[0].networkLayer.arp completedARPResolution:count 0
attr title "ARP completed resolutions, count"
scalar StarLAN.host[0].networkLayer.arp initiatedARPResolution:count 0
attr title "ARP initiated resolutions, count"
scalar StarLAN.host[0].lo0.lo droppedPkBitError:count 0
attr interpolationmode none
attr source dropPkBitError
attr title "packets dropped/bit error, count"
scalar StarLAN.host[0].lo0.lo droppedPkBitError:sum(packetBytes) 0
attr interpolationmode none
attr source dropPkBitError
attr title "packets dropped/bit error, sum(packetBytes)"
scalar StarLAN.host[0].lo0.lo rcvdPkFromHL:count 5740
attr interpolationmode none
attr source packetReceivedFromUpper
attr title "packets received from higher layer, count"
scalar StarLAN.host[0].lo0.lo rcvdPkFromHL:sum(packetBytes) 3936782
attr interpolationmode none
attr source packetReceivedFromUpper
attr title "packets received from higher layer, sum(packetBytes)"
scalar StarLAN.host[0].lo0.lo passedUpPk:count 5740
attr interpolationmode none
attr source packetSentToUpper
attr title "packets passed to higher layer, count"
scalar StarLAN.host[0].lo0.lo passedUpPk:sum(packetBytes) 3936782
attr interpolationmode none
attr source packetSentToUpper
attr title "packets passed to higher layer, sum(packetBytes)"
scalar StarLAN.host[0].eth[0].queue.pauseQueue queueLength:max nan
attr interpolationmode sample-hold
attr title "queue length, max"
scalar StarLAN.host[0].eth[0].queue.pauseQueue queueLength:timeavg nan
attr interpolationmode sample-hold
attr title "queue length, timeavg"
statistic StarLAN.host[0].eth[0].queue.pauseQueue queueingTime:histogram
field count 0
field mean nan
field stddev nan
field min nan
field max nan
field sum 0
field sqrsum 0
attr interpolationmode none
attr title "queueing time, histogram"
bin	-inf	0
bin	-0.5	0
bin	-0.46666666666667	0
bin	-0.43333333333333	0
bin	-0.4	0
bin	-0.36666666666667	0
bin	-0.33333333333333	0
bin	-0.3	0
bin	-0.26666666666667	0
bin	-0.23333333333333	0
bin	-0.2	0
bin	-0.16666666666667	0
bin	-0.13333333333333	0
bin	-0.1	0
bin	-0.066666666666667	0
bin	-0.033333333333333	0
bin	0	0
bin	0.033333333333333	0
bin	0.066666666666667	0
bin	0.1	0
bin	0.13333333333333	0
bin	0.16666666666667	0
bin	0.2	0
bin	0.23333333333333	0
bin	0.26666666666667	0
bin	0.3	0
bin	0.33333333333333	0
bin	0.36666666666667	0
bin	0.4	0
bin	0.43333333333333	0
bin	0.46666666666667	0
bin	0.5	0
scalar StarLAN.host[0].eth[0].queue.pauseQueue dropPk:count 0
attr interpolationmode none
attr source dropPkByQueue
attr title "dropped packets, count"
scalar StarLAN.host[0].eth[0].queue.pauseQueue dropPk:sum(packetBytes) 0
attr interpolationmode none
attr source dropPkByQueue
attr title "dropped packets, sum(packetBytes)"
scalar StarLAN.host[0].eth[0].queue.pauseQueue rcvdPk:count 0
attr interpolationmode none
attr title "received packets, count"
scalar StarLAN.host[0].eth[0].queue.pauseQueue rcvdPk:sum(packetBytes) 0
attr interpolationmode none
attr title "received packets, sum(packetBytes)"
scalar StarLAN.host[0].eth[0].queue.dataQueue queueLength:max 10
attr interpolationmode sample-hold
attr title "queue length, max"
scalar StarLAN.host[0].eth[0].queue.dataQueue queueLength:timeavg 8.3984564298244
attr interpolationmode sample-hold
attr title "queue length, timeavg"
statistic StarLAN.host[0].eth[0].queue.dataQueue queueingTime:histogram
field count 24167
field mean 0.0052122987039514
field stddev 0.0011773490467478
field min 0
field max 0.008118906641
field sum 125.96562277839
field sqrsum 0.69006817204846
attr interpolationmode none
attr title "queueing time, histogram"
bin	-inf	135
bin	0.0012288770715	48
bin	0.0014962970634333	89
bin	0.0017637170553667	129
bin	0.0020311370473	144
bin	0.0022985570392333	237
bin	0.0025659770311667	281
bin	0.0028333970231	335
bin	0.0031008170150333	441
bin	0.0033682370069667	557
bin	0.0036356569989	772
bin	0.0039030769908333	954
bin	0.0041704969827667	1146
bin	0.0044379169747	1465
bin	0.0047053369666333	1844
bin	0.0049727569585667	2176
bin	0.0052401769505	2411
bin	0.0055075969424333	2552
bin	0.0057750169343667	2439
bin	0.0060424369263	2207
bin	0.0063098569182333	1630
bin	0.0065772769101667	1085
bin	0.0068446969021	606
bin	0.0071121168940333	315
bin	0.0073795368859667	126
bin	0.0076469568779	36
bin	0.0079143768698333	7
bin	0.0081817968617667	0
bin	0.0084492168537	0
bin	0.0087166368456333	0
bin	0.0089840568375667	0
bin	0.0092514768295	0
scalar StarLAN.host[0].eth[0].queue.dataQueue dropPk:count 13570
attr interpolationmode none
attr source dropPkByQueue
attr title "dropped packets, count"
scalar StarLAN.host[0].eth[0].queue.dataQueue dropPk:sum(packetBytes) 8421759
attr interpolationmode none
attr source dropPkByQueue
attr title "dropped packets, sum(packetBytes)"
scalar StarLAN.host[0].eth[0].queue.dataQueue rcvdPk:count 37740
attr interpolationmode none
attr title "received packets, count"
scalar StarLAN.host[0].eth[0].queue.dataQueue rcvdPk:sum(packetBytes) 26678501
attr interpolationmode none
attr title "received packets, sum(packetBytes)"
scalar StarLAN.host[0].eth[0].mac "simulated time" 20
scalar StarLAN.host[0].eth[0].mac full-duplex 1
scalar StarLAN.host[0].eth[0].mac "frames/sec sent" 1603.95
scalar StarLAN.host[0].eth[0].mac "frames/sec rcvd" 1498.3
scalar StarLAN.host[0].eth[0].mac "bits/sec sent" 9685766.8
scalar StarLAN.host[0].eth[0].mac "bits/sec rcvd" 9239391.6
scalar StarLAN.host[0].eth[0].mac "rx channel idle (%)" 6.647172
scalar StarLAN.host[0].eth[0].mac "rx channel utilization (%)" 93.352828
scalar StarLAN.host[0].eth[0].mac rxPkFromHL:count 24167
attr interpolationmode none
attr source rxPkFromHL
attr title "packet bytes from higher layer, count"
scalar StarLAN.host[0].eth[0].mac rxPkFromHL:sum(packetBytes) 18253418
attr interpolationmode none
attr source rxPkFromHL
attr title "packet bytes from higher layer, sum(packetBytes)"
scalar StarLAN.host[0].eth[0].mac rxPausePkUnits:count 0
attr interpolationmode none
attr title "pause units received, count"
scalar StarLAN.host[0].eth[0].mac rxPausePkUnits:sum 0
attr interpolationmode none
attr title "pause units received, sum"
scalar StarLAN.host[0].eth[0].mac txPausePkUnits:count 0
attr interpolationmode none
attr title "pause units sent, count"
scalar StarLAN.host[0].eth[0].mac txPausePkUnits:sum 0
attr interpolationmode none
attr title "pause units sent, sum"
scalar StarLAN.host[0].eth[0].mac txPk:count 24167
attr interpolationmode none
attr source txPk
attr title "packets transmitted, count"
scalar StarLAN.host[0].eth[0].mac txPk:sum(packetBytes) 18253418
attr interpolationmode none
attr source txPk
attr title "packets transmitted, sum(packetBytes)"
scalar StarLAN.host[0].eth[0].mac droppedPkNotForUs:count 0
attr interpolationmode none
attr source dropPkNotForUs
attr title "packets dropped/not for us, count"
scalar StarLAN.host[0].eth[0].mac droppedPkNotForUs:sum(packetBytes) 0
attr interpolationmode none
attr source dropPkNotForUs
attr title "packets dropped/not for us, sum(packetBytes)"
scalar StarLAN.host[0].eth[0].mac droppedPkBitError:count 0
attr interpolationmode none
attr source dropPkBitError
attr title "packets dropped/bit error, count"
scalar StarLAN.host[0].eth[0].mac droppedPkBitError:sum(packetBytes) 0
attr interpolationmode none
attr source dropPkBitError
attr title "packets dropped/bit error, sum(packetBytes)"
scalar StarLAN.host[0].eth[0].mac droppedPkIfaceDown:count 0
attr interpolationmode none
attr source dropPkIfaceDown
attr title "packets dropped/interface down, count"
scalar StarLAN.host[0].eth[0].mac droppedPkIfaceDown:sum(packetBytes) 0
attr interpolationmode none
attr source dropPkIfaceDown
attr title "packets dropped/interface down, sum(packetBytes)"
scalar StarLAN.host[0].eth[0].mac rxPkOk:count 22453
attr interpolationmode none
attr source rxPkOk
attr title "packets received OK, count"
scalar StarLAN.host[0].eth[0].mac rxPkOk:sum(packetBytes) 17322839
attr interpolationmode none
attr source rxPkOk
attr title "packets received OK, sum(packetBytes)"
scalar StarLAN.host[0].eth[0].mac passedUpPk:count 22453
attr interpolationmode none
attr source packetSentToUpper
attr title "packets passed to higher layer, count"
scalar StarLAN.host[0].eth[0].mac passedUpPk:sum(packetBytes) 17322839
attr interpolationmode none
attr source packetSentToUpper
attr title "packets passed to higher layer, sum(packetBytes)"
scalar StarLAN.host[0].eth[0].encap pauseSent:count 0
attr title "pause sent, count"
scalar StarLAN.host[0].eth[0].encap pauseSent:sum 0
attr title "pause sent, sum"
scalar StarLAN.host[0].eth[0].encap decapPk:count 22453
attr interpolationmode none
attr source decapPk
attr title "packets decapsulated, count"
scalar StarLAN.host[0].eth[0].encap decapPk:sum(packetBytes) 16916714
attr interpolationmode none
attr source decapPk
attr title "packets decapsulated, sum(packetBytes)"
scalar StarLAN.host[0].eth[0].encap encapPk:count 37740
attr interpolationmode none
attr source encapPk
attr title "packets encapsulated, count"
scalar StarLAN.host[0].eth[0].encap encapPk:sum(packetBytes) 25991187
attr interpolationmode none
attr source encapPk
attr title "packets encapsulated, sum(packetBytes)"
scalar StarLAN.host[0].pingApp[0] "Pings sent" 189
scalar StarLAN.host[0].pingApp[0] "ping loss rate (%)" 74.074074074074
scalar StarLAN.host[0].pingApp[0] "ping out-of-order rate (%)" 0
scalar StarLAN.host[0].pingApp[0] pingRxSeq:count 33
attr interpolationmode none
attr title "ping rx seq, count"
scalar StarLAN.host[0].pingApp[0] pingTxSeq:count 139
attr interpolationmode none
attr title "ping tx seq, count"
scalar StarLAN.host[0].pingApp[0] numOutOfOrderArrivals:last nan
attr interpolationmode none
attr title "ping out-of-order arrivals, last"
scalar StarLAN.host[0].pingApp[0] numLost:last 136
attr interpolationmode none
attr title "pings lost, last"
scalar StarLAN.host[0].pingApp[0] rtt:mean 0.0199273681765
attr interpolationmode none
attr title "ping round-trip time, mean"
attr unit s
scalar StarLAN.host[0].pingApp[1] "Pings sent" 192
scalar StarLAN.host[0].pingApp[1] "ping loss rate (%)" 75.520833333333
scalar StarLAN.host[0].pingApp[1] "ping out-of-order rate (%)" 0
scalar StarLAN.host[0].pingApp[1] pingRxSeq:count 34
attr interpolationmode none
attr title "ping rx seq, count"
scalar StarLAN.host[0].pingApp[1] pingTxSeq:count 142
attr interpolationmode none
attr title "ping tx seq, count"
scalar StarLAN.host[0].pingApp[1] numOutOfOrderArrivals:last nan
attr interpolationmode none
attr title "ping out-of-order arrivals, last"
scalar StarLAN.host[0].pingApp[1] numLost:last 140
attr interpolationmode none
attr title "pings lost, last"
scalar StarLAN.host[0].pingApp[1] rtt:mean 0.021061807352227
attr interpolationmode none
attr title "ping round-trip time, mean"
attr unit s
scalar StarLAN.host[0].pingApp[2] "Pings sent" 180
scalar StarLAN.host[0].pingApp[2] "ping loss rate (%)" 47.222222222222
scalar StarLAN.host[0].pingApp[2] "ping out-of-order rate (%)" 0
scalar StarLAN.host[0].pingApp[2] pingRxSeq:count 68
attr interpolationmode none
attr title "ping rx seq, count"
scalar StarLAN.host[0].pingApp[2] pingTxSeq:count 133
attr interpolationmode none
attr title "ping tx seq, count"
scalar StarLAN.host[0].pingApp[2] numOutOfOrderArrivals:last nan
attr interpolationmode none
attr title "ping out-of-order arrivals, last"
scalar StarLAN.host[0].pingApp[2] numLost:last 84
attr interpolationmode none
attr title "pings lost, last"
scalar StarLAN.host[0].pingApp[2] rtt:mean 0.019884745578909
attr interpolationmode none
attr title "ping round-trip time, mean"
attr unit s
scalar StarLAN.host[0].pingApp[3] "Pings sent" 194
scalar StarLAN.host[0].pingApp[3] "ping loss rate (%)" 43.814432989691
scalar StarLAN.host[0].pingApp[3] "ping out-of-order rate (%)" 0.51546391752577
scalar StarLAN.host[0].pingApp[3] pingRxSeq:count 82
attr interpolationmode none
attr title "ping rx seq, count"
scalar StarLAN.host[0].pingApp[3] pingTxSeq:count 148
attr interpolationmode none
attr title "ping tx seq, count"
scalar StarLAN.host[0].pingApp[3] numOutOfOrderArrivals:last 1
attr interpolationmode none
attr title "ping out-of-order arrivals, last"
scalar StarLAN.host[0].pingApp[3] numLost:last 85
attr interpolationmode none
attr title "pings lost, last"
scalar StarLAN.host[0].pingApp[3] rtt:mean 0.019672216086235
attr interpolationmode none
attr title "ping round-trip time, mean"
attr unit s
scalar StarLAN.host[0].pingApp[4] "Pings sent" 193
scalar StarLAN.host[0].pingApp[4] "ping loss rate (%)" 49.222797927461
scalar StarLAN.host[0].pingApp[4] "ping out-of-order rate (%)" 0
scalar StarLAN.host[0].pingApp[4] pingRxSeq:count 74
attr interpolationmode none
attr title "ping rx seq, count"
scalar StarLAN.host[0].pingApp[4] pingTxSeq:count 147
attr interpolationmode none
attr title "ping tx seq, count"
scalar StarLAN.host[0].pingApp[4] numOutOfOrderArrivals:last nan
attr interpolationmode none
attr title "ping out-of-order arrivals, last"
scalar StarLAN.host[0].pingApp[4] numLost:last 95
attr interpolationmode none
attr title "pings lost, last"
scalar StarLAN.host[0].pingApp[4] rtt:mean 0.018829096944833
attr interpolationmode none
attr title "ping round-trip time, mean"
attr unit s
scalar StarLAN.host[0].pingApp[5] "Pings sent" 194
scalar StarLAN.host[0].pingApp[5] "ping loss rate (%)" 74.742268041237
scalar StarLAN.host[0].pingApp[5] "ping out-of-order rate (%)" 0
scalar StarLAN.host[0].pingApp[5] pingRxSeq:count 37
attr interpolationmode none
attr title "ping rx seq, count"
scalar StarLAN.host[0].pingApp[5] pingTxSeq:count 142
attr interpolationmode none
attr title "ping tx seq, count"
scalar StarLAN.host[0].pingApp[5] numOutOfOrderArrivals:last nan
attr interpolationmode none
attr title "ping out-of-order arrivals, last"
scalar StarLAN.host[0].pingApp[5] numLost:last 144
attr interpolationmode none
attr title "pings lost, last"
scalar StarLAN.host[0].pingApp[5] rtt:mean 0.0191839901458
attr interpolationmode none
attr title "ping round-trip time, mean"
attr unit s
scalar StarLAN.host[0].pingApp[6] "Pings sent" 200
scalar StarLAN.host[0].pingApp[6] "ping loss rate (%)" 42
scalar StarLAN.host[0].pingApp[6] "ping out-of-order rate (%)" 0
scalar StarLAN.host[0].pingApp[6] pingRxSeq:count 84
attr interpolationmode none
attr title "ping rx seq, count"
scalar StarLAN.host[0].pingApp[6] pingTxSeq:count 149
attr interpolationmode none
attr title "ping tx seq, count"
scalar StarLAN.host[0].pingApp[6] numOutOfOrderArrivals:last nan
attr interpolationmode none
attr title "ping out-of-order arrivals, last"
scalar StarLAN.host[0].pingApp[6] numLost:last 84
attr interpolationmode none
attr title "pings lost, last"
scalar StarLAN.host[0].pingApp[6] rtt:mean 0.019205731691455
attr interpolationmode none
attr title "ping round-trip time, mean"
attr unit s
scalar StarLAN.host[0].pingApp[7] "Pings sent" 196
scalar StarLAN.host[0].pingApp[7] "ping loss rate (%)" 38.265306122449
scalar StarLAN.host[0].pingApp[7] "ping out-of-order rate (%)" 0
scalar StarLAN.host[0].pingApp[7] pingRxSeq:count 87
attr interpolationmode none
attr title "ping rx seq, count"
scalar StarLAN.host[0].pingApp[7] pingTxSeq:count 144
attr interpolationmode none
attr title "ping tx seq, count"
scalar StarLAN.host[0].pingApp[7] numOutOfOrderArrivals:last nan
attr interpolationmode none
attr title "ping out-of-order arrivals, last"
scalar StarLAN.host[0].pingApp[7] numLost:last 75
attr interpolationmode none
attr title "pings lost, last"
scalar StarLAN.host[0].pingApp[7] rtt:mean 0.020122922141027
attr interpolationmode none
attr title "ping round-trip time, mean"
attr unit s
scalar StarLAN.host[0].pingApp[8] "Pings sent" 198
scalar StarLAN.host[0].pingApp[8] "ping loss rate (%)" 58.080808080808
scalar StarLAN.host[0].pingApp[8] "ping out-of-order rate (%)" 0
scalar StarLAN.host[0].pingApp[8] pingRxSeq:count 57
attr interpolationmode none
attr title "ping rx seq, count"
scalar StarLAN.host[0].pingApp[8] pingTxSeq:count 141
attr interpolationmode none
attr title "ping tx seq, count"
scalar StarLAN.host[0].pingApp[8] numOutOfOrderArrivals:last nan
attr interpolationmode none
attr title "ping out-of-order arrivals, last"
scalar StarLAN.host[0].pingApp[8] numLost:last 113
attr interpolationmode none
attr title "pings lost, last"
scalar StarLAN.host[0].pingApp[8] rtt:mean 0.017265889883227
attr interpolationmode none
attr title "ping round-trip time, mean"
attr unit s
scalar StarLAN.host[0].pingApp[9] "Pings sent" 189
scalar StarLAN.host[0].pingApp[9] "ping loss rate (%)" 76.190476190476
scalar StarLAN.host[0].pingApp[9] "ping out-of-order rate (%)" 0
scalar StarLAN.host[0].pingApp[9] pingRxSeq:count 34
attr interpolationmode none
attr title "ping rx seq, count"
scalar StarLAN.host[0].pingApp[9] pingTxSeq:count 141
attr interpolationmode none
attr title "ping tx seq, count"
scalar StarLAN.host[0].pingApp[9] numOutOfOrderArrivals:last nan
attr interpolationmode none
attr title "ping out-of-order arrivals, last"
scalar StarLAN.host[0].pingApp[9] numLost:last 141
attr interpolationmode none
attr title "pings lost, last"
scalar StarLAN.host[0].pingApp[9] rtt:mean 0.0183133626932
attr interpolationmode none
attr title "ping round-trip time, mean"
attr unit s
scalar StarLAN.host[0].pingApp[10] "Pings sent" 197
scalar StarLAN.host[0].pingApp[10] "ping loss rate (%)" 45.177664974619
scalar StarLAN.host[0].pingApp[10] "ping out-of-order rate (%)" 0.50761421319797
scalar StarLAN.host[0].pingApp[10] pingRxSeq:count 80
attr interpolationmode none
attr title "ping rx seq, count"
scalar StarLAN.host[0].pingApp[10] pingTxSeq:count 149
attr interpolationmode none
attr title "ping tx seq, count"
scalar StarLAN.host[0].pingApp[10] numOutOfOrderArrivals:last 1
attr interpolationmode none
attr title "ping out-of-order arrivals, last"
scalar StarLAN.host[0].pingApp[10] numLost:last 88
attr interpolationmode none
attr title "pings lost, last"
scalar StarLAN.host[0].pingApp[10] rtt:mean 0.019474339337556
attr interpolationmode none
attr title "ping round-trip time, mean"
attr unit s
scalar StarLAN.host[0].pingApp[11] "Pings sent" 196
scalar StarLAN.host[0].pingApp[11] "ping loss rate (%)" 68.877551020408
scalar StarLAN.host[0].pingApp[11] "ping out-of-order rate (%)" 0
scalar StarLAN.host[0].pingApp[11] pingRxSeq:count 49
attr interpolationmode none
attr title "ping rx seq, count"
scalar StarLAN.host[0].pingApp[11] pingTxSeq:count 150
attr interpolationmode none
attr title "ping tx seq, count"
scalar StarLAN.host[0].pingApp[11] numOutOfOrderArrivals:last nan
attr interpolationmode none
attr title "ping out-of-order arrivals, last"
scalar StarLAN.host[0].pingApp[11] numLost:last 132
attr interpolationmode none
attr title "pings lost, last"
scalar StarLAN.host[0].pingApp[11] rtt:mean 0.020478475845423
attr interpolationmode none
attr title "ping round-trip time, mean"
attr unit s
scalar StarLAN.host[0].pingApp[12] "Pings sent" 199
scalar StarLAN.host[0].pingApp[12] "ping loss rate (%)" 48.241206030151
scalar StarLAN.host[0].pingApp[12] "ping out-of-order rate (%)" 0
scalar StarLAN.host[0].pingApp[12] pingRxSeq:count 79
attr interpolationmode none
attr title "ping rx seq, count"
scalar StarLAN.host[0].pingApp[12] pingTxSeq:count 154
attr interpolationmode none
attr title "ping tx seq, count"
scalar StarLAN.host[0].pingApp[12] numOutOfOrderArrivals:last nan
attr interpolationmode none
attr title "ping out-of-order arrivals, last"
scalar StarLAN.host[0].pingApp[12] numLost:last 96
attr interpolationmode none
attr title "pings lost, last"
scalar StarLAN.host[0].pingApp[12] rtt:mean 0.018514289613348
attr interpolationmode none
attr title "ping round-trip time, mean"
attr unit s
scalar StarLAN.host[0].pingApp[13] "Pings sent" 210
scalar StarLAN.host[0].pingApp[13] "ping loss rate (%)" 77.619047619048
scalar StarLAN.host[0].pingApp[13] "ping out-of-order rate (%)" 0.47619047619048
scalar StarLAN.host[0].pingApp[13] pingRxSeq:count 34
attr interpolationmode none
attr title "ping rx seq, count"
scalar StarLAN.host[0].pingApp[13] pingTxSeq:count 160
attr interpolationmode none
attr title "ping tx seq, count"
scalar StarLAN.host[0].pingApp[13] numOutOfOrderArrivals:last 1
attr interpolationmode none
attr title "ping out-of-order arrivals, last"
scalar StarLAN.host[0].pingApp[13] numLost:last 163
attr interpolationmode none
attr title "pings lost, last"
scalar StarLAN.host[0].pingApp[13] rtt:mean 0.019686967406588
attr interpolationmode none
attr title "ping round-trip time, mean"
attr unit s
scalar StarLAN.host[0].pingApp[14] "Pings sent" 187
scalar StarLAN.host[0].pingApp[14] "ping loss rate (%)" 48.128342245989
scalar StarLAN.host[0].pingApp[14] "ping out-of-order rate (%)" 0
scalar StarLAN.host[0].pingApp[14] pingRxSeq:count 69
attr interpolationmode none
attr title "ping rx seq, count"
scalar StarLAN.host[0].pingApp[14] pingTxSeq:count 143
attr interpolationmode none
attr title "ping tx seq, count"
scalar StarLAN.host[0].pingApp[14] numOutOfOrderArrivals:last nan
attr interpolationmode none
attr title "ping out-of-order arrivals, last"
scalar StarLAN.host[0].pingApp[14] numLost:last 89
attr interpolationmode none
attr title "pings lost, last"
scalar StarLAN.host[0].pingApp[14] rtt:mean 0.018790425082404
attr interpolationmode none
attr title "ping round-trip time, mean"
attr unit s
scalar StarLAN.host[0].pingApp[15] "Pings sent" 196
scalar StarLAN.host[0].pingApp[15] "ping loss rate (%)" 47.959183673469
scalar StarLAN.host[0].pingApp[15] "ping out-of-order rate (%)" 0
scalar StarLAN.host[0].pingApp[15] pingRxSeq:count 79
attr interpolationmode none
attr title "ping rx seq, count"
scalar StarLAN.host[0].pingApp[15] pingTxSeq:count 148
attr interpolationmode none
attr title "ping tx seq, count"
scalar StarLAN.host[0].pingApp[15] numOutOfOrderArrivals:last nan
attr interpolationmode none
attr title "ping out-of-order arrivals, last"
scalar StarLAN.host[0].pingApp[15] numLost:last 94
attr interpolationmode none
attr title "pings lost, last"
scalar StarLAN.host[0].pingApp[15] rtt:mean 0.018848828197881
attr interpolationmode none
attr title "ping round-trip time, mean"
attr unit s
scalar StarLAN.host[0].pingApp[16] "Pings sent" 202
scalar StarLAN.host[0].pingApp[16] "ping loss rate (%)" 54.455445544554
scalar StarLAN.host[0].pingApp[16] "ping out-of-order rate (%)" 0
scalar StarLAN.host[0].pingApp[16] pingRxSeq:count 67
attr interpolationmode none
attr title "ping rx seq, count"
scalar StarLAN.host[0].pingApp[16] pingTxSeq:count 151
attr interpolationmode none
attr title "ping tx seq, count"
scalar StarLAN.host[0].pingApp[16] numOutOfOrderArrivals:last nan
attr interpolationmode none
attr title "ping out-of-order arrivals, last"
scalar StarLAN.host[0].pingApp[16] numLost:last 110
attr interpolationmode none
attr title "pings lost, last"
scalar StarLAN.host[0].pingApp[16] rtt:mean 0.018767503057382
attr interpolationmode none
attr title "ping round-trip time, mean"
attr unit s
scalar StarLAN.host[0].pingApp[17] "Pings sent" 196
scalar StarLAN.host[0].pingApp[17] "ping loss rate (%)" 48.469387755102
scalar StarLAN.host[0].pingApp[17] "ping out-of-order rate (%)" 0
scalar StarLAN.host[0].pingApp[17] pingRxSeq:count 73
attr interpolationmode none
attr title "ping rx seq, count"
scalar StarLAN.host[0].pingApp[17] pingTxSeq:count 148
attr interpolationmode none
attr title "ping tx seq, count"
scalar StarLAN.host[0].pingApp[17] numOutOfOrderArrivals:last nan
attr interpolationmode none
attr title "ping out-of-order arrivals, last"
scalar StarLAN.host[0].pingApp[17] numLost:last 95
attr interpolationmode none
attr title "pings lost, last"
scalar StarLAN.host[0].pingApp[17] rtt:mean 0.018369338906115
attr interpolationmode none
attr title "ping round-trip time, mean"
attr unit s
scalar StarLAN.host[0].pingApp[18] "Pings sent" 196
scalar StarLAN.host[0].pingApp[18] "ping loss rate (%)" 71.938775510204
scalar StarLAN.host[0].pingApp[18] "ping out-of-order rate (%)" 0
scalar StarLAN.host[0].pingApp[18] pingRxSeq:count 41
attr interpolationmode none
attr title "ping rx seq, count"
scalar StarLAN.host[0].pingApp[18] pingTxSeq:count 148
attr interpolationmode none
attr title "ping tx seq, count"
scalar StarLAN.host[0].pingApp[18] numOutOfOrderArrivals:last nan
attr interpolationmode none
attr title "ping out-of-order arrivals, last"
scalar StarLAN.host[0].pingApp[18] numLost:last 141
attr interpolationmode none
attr title "pings lost, last"
scalar StarLAN.host[0].pingApp[18] rtt:mean 0.021000613015583
attr interpolationmode none
attr title "ping round-trip time, mean"
attr unit s
scalar StarLAN.host[0].pingApp[19] "Pings sent" 180
scalar StarLAN.host[0].pingApp[19] "ping loss rate (%)" 72.777777777778
scalar StarLAN.host[0].pingApp[19] "ping out-of-order rate (%)" 0.55555555555556
scalar StarLAN.host[0].pingApp[19] pingRxSeq:count 39
attr interpolationmode none
attr title "ping rx seq, count"
scalar StarLAN.host[0].pingApp[19] pingTxSeq:count 134
attr interpolationmode none
attr title "ping tx seq, count"
scalar StarLAN.host[0].pingApp[19] numOutOfOrderArrivals:last nan
attr interpolationmode none
attr title "ping out-of-order arrivals, last"
scalar StarLAN.host[0].pingApp[19] numLost:last 125
attr interpolationmode none
attr title "pings lost, last"
scalar StarLAN.host[0].pingApp[19] rtt:mean 0.019130008550609
attr interpolationmode none
attr title "ping round-trip time, mean"
attr unit s
scalar StarLAN.host[0].pingApp[20] "Pings sent" 192
scalar StarLAN.host[0].pingApp[20] "ping loss rate (%)" 71.875
scalar StarLAN.host[0].pingApp[20] "ping out-of-order rate (%)" 0
scalar StarLAN.host[0].pingApp[20] pingRxSeq:count 42
attr interpolationmode none
attr title "ping rx seq, count"
scalar StarLAN.host[0].pingApp[20] pingTxSeq:count 145
attr interpolationmode none
attr title "ping tx seq, count"
scalar StarLAN.host[0].pingApp[20] numOutOfOrderArrivals:last nan
attr interpolationmode none
attr title "ping out-of-order arrivals, last"
scalar StarLAN.host[0].pingApp[20] numLost:last 136
attr interpolationmode none
attr title "pings lost, last"
scalar StarLAN.host[0].pingApp[20] rtt:mean 0.01835495308204
attr interpolationmode none
attr title "ping round-trip time, mean"
attr unit s
scalar StarLAN.host[0].pingApp[21] "Pings sent" 182
scalar StarLAN.host[0].pingApp[21] "ping loss rate (%)" 44.505494505495
scalar StarLAN.host[0].pingApp[21] "ping out-of-order rate (%)" 0
scalar StarLAN.host[0].pingApp[21] pingRxSeq:count 77
attr interpolationmode none
attr title "ping rx seq, count"
scalar StarLAN.host[0].pingApp[21] pingTxSeq:count 139
attr interpolationmode none
attr title "ping tx seq, count"
scalar StarLAN.host[0].pingApp[21] numOutOfOrderArrivals:last nan
attr interpolationmode none
attr title "ping out-of-order arrivals, last"
scalar StarLAN.host[0].pingApp[21] numLost:last 80
attr interpolationmode none
attr title "pings lost, last"
scalar StarLAN.host[0].pingApp[21] rtt:mean 0.018746474117051
attr interpolationmode none
attr title "ping round-trip time, mean"
attr unit s
scalar StarLAN.host[0].pingApp[22] "Pings sent" 193
scalar StarLAN.host[0].pingApp[22] "ping loss rate (%)" 79.79274611399
scalar StarLAN.host[0].pingApp[22] "ping out-of-order rate (%)" 0
scalar StarLAN.host[0].pingApp[22] pingRxSeq:count 28
attr interpolationmode none
attr title "ping rx seq, count"
scalar StarLAN.host[0].pingApp[22] pingTxSeq:count 142
attr interpolationmode none
attr title "ping tx seq, count"
scalar StarLAN.host[0].pingApp[22] numOutOfOrderArrivals:last nan
attr interpolationmode none
attr title "ping out-of-order arrivals, last"
scalar StarLAN.host[0].pingApp[22] numLost:last 153
attr interpolationmode none
attr title "pings lost, last"
scalar StarLAN.host[0].pingApp[22] rtt:mean 0.018764733191867
attr interpolationmode none
attr title "ping round-trip time, mean"
attr unit s
scalar StarLAN.host[0].pingApp[23] "Pings sent" 203
scalar StarLAN.host[0].pingApp[23] "ping loss rate (%)" 45.812807881773
scalar StarLAN.host[0].pingApp[23] "ping out-of-order rate (%)" 0
scalar StarLAN.host[0].pingApp[23] pingRxSeq:count 83
attr interpolationmode none
attr title "ping rx seq, count"
scalar StarLAN.host[0].pingApp[23] pingTxSeq:count 155
attr interpolationmode none
attr title "ping tx seq, count"
scalar StarLAN.host[0].pingApp[23] numOutOfOrderArrivals:last nan
attr interpolationmode none
attr title "ping out-of-order arrivals, last"
scalar StarLAN.host[0].pingApp[23] numLost:last 91
attr interpolationmode none
attr title "pings lost, last"
scalar StarLAN.host[0].pingApp[23] rtt:mean 0.017474158723586
attr interpolationmode none
attr title "ping round-trip time, mean"
attr unit s
scalar StarLAN.host[0].pingApp[24] "Pings sent" 192
scalar StarLAN.host[0].pingApp[24] "ping loss rate (%)" 76.5625
scalar StarLAN.host[0].pingApp[24] "ping out-of-order rate (%)" 0
scalar StarLAN.host[0].pingApp[24] pingRxSeq:count 29
attr interpolationmode none
attr title "ping rx seq, count"
scalar StarLAN.host[0].pingApp[24] pingTxSeq:count 143
attr interpolationmode none
attr title "ping tx seq, count"
scalar StarLAN.host[0].pingApp[24] numOutOfOrderArrivals:last nan
attr interpolationmode none
attr title "ping out-of-order arrivals, last"
scalar StarLAN.host[0].pingApp[24] numLost:last 147
attr interpolationmode none
attr title "pings lost, last"
scalar StarLAN.host[0].pingApp[24] rtt:mean 0.019683646569333
attr interpolationmode none
attr title "ping round-trip time, mean"
attr unit s
scalar StarLAN.host[0].pingApp[25] "Pings sent" 186
scalar StarLAN.host[0].pingApp[25] "ping loss rate (%)" 70.430107526882
scalar StarLAN.host[0].pingApp[25] "ping out-of-order rate (%)" 0
scalar StarLAN.host[0].pingApp[25] pingRxSeq:count 35
attr interpolationmode none
attr title "ping rx seq, count"
scalar StarLAN.host[0].pingApp[25] pingTxSeq:count 140
attr interpolationmode none
attr title "ping tx seq, count"
scalar StarLAN.host[0].pingApp[25] numOutOfOrderArrivals:last nan
attr interpolationmode none
attr title "ping out-of-order arrivals, last"
scalar StarLAN.host[0].pingApp[25] numLost:last 130
attr interpolationmode none
attr title "pings lost, last"
scalar StarLAN.host[0].pingApp[25] rtt:mean 0.020723249052474
attr interpolationmode none
attr title "ping round-trip time, mean"
attr unit s
scalar StarLAN.host[0].pingApp[26] "Pings sent" 197
scalar StarLAN.host[0].pingApp[26] "ping loss rate (%)" 55.329949238579
scalar StarLAN.host[0].pingApp[26] "ping out-of-order rate (%)" 0
scalar StarLAN.host[0].pingApp[26] pingRxSeq:count 65
attr interpolationmode none
attr title "ping rx seq, count"
scalar StarLAN.host[0].pingApp[26] pingTxSeq:count 150
attr interpolationmode none
attr title "ping tx seq, count"
scalar StarLAN.host[0].pingApp[26] numOutOfOrderArrivals:last nan
attr interpolationmode none
attr title "ping out-of-order arrivals, last"
scalar StarLAN.host[0].pingApp[26] numLost:last 108
attr interpolationmode none
attr title "pings lost, last"
scalar StarLAN.host[0].pingApp[26] rtt:mean 0.017329445513413
attr interpolationmode none
attr title "ping round-trip time, mean"
attr unit s
scalar StarLAN.host[0].pingApp[27] "Pings sent" 192
scalar StarLAN.host[0].pingApp[27] "ping loss rate (%)" 78.645833333333
scalar StarLAN.host[0].pingApp[27] "ping out-of-order rate (%)" 0
scalar StarLAN.host[0].pingApp[27] pingRxSeq:count 32
attr interpolationmode none
attr title "ping rx seq, count"
scalar StarLAN.host[0].pingApp[27] pingTxSeq:count 144
attr interpolationmode none
attr title "ping tx seq, count"
scalar StarLAN.host[0].pingApp[27] numOutOfOrderArrivals:last nan
attr interpolationmode none
attr title "ping out-of-order arrivals, last"
scalar StarLAN.host[0].pingApp[27] numLost:last 149
attr interpolationmode none
attr title "pings lost, last"
scalar StarLAN.host[0].pingApp[27] rtt:mean 0.018398701384941
attr interpolationmode none
attr title "ping round-trip time, mean"
attr unit s
scalar StarLAN.host[0].pingApp[28] "Pings sent" 200
scalar StarLAN.host[0].pingApp[28] "ping loss rate (%)" 78
scalar StarLAN.host[0].pingApp[28] "ping out-of-order rate (%)" 0
scalar StarLAN.host[0].pingApp[28] pingRxSeq:count 36
attr interpolationmode none
attr title "ping rx seq, count"
scalar StarLAN.host[0].pingApp[28] pingTxSeq:count 151
attr interpolationmode none
attr title "ping tx seq, count"
scalar StarLAN.host[0].pingApp[28] numOutOfOrderArrivals:last nan
attr interpolationmode none
attr title "ping out-of-order arrivals, last"
scalar StarLAN.host[0].pingApp[28] numLost:last 155
attr interpolationmode none
attr title "pings lost, last"
scalar StarLAN.host[0].pingApp[28] rtt:mean 0.018740815424524
attr interpolationmode none
attr title "ping round-trip time, mean"
attr unit s
scalar StarLAN.host[0].pingApp[29] "Pings sent" 195
scalar StarLAN.host[0].pingApp[29] "ping loss rate (%)" 48.205128205128
scalar StarLAN.host[0].pingApp[29] "ping out-of-order rate (%)" 0
scalar StarLAN.host[0].pingApp[29] pingRxSeq:count 79
attr interpolationmode none
attr title "ping rx seq, count"
scalar StarLAN.host[0].pingApp[29] pingTxSeq:count 153
attr interpolationmode none
attr title "ping tx seq, count"
scalar StarLAN.host[0].pingApp[29] numOutOfOrderArrivals:last nan
attr interpolationmode none
attr title "ping out-of-order arrivals, last"
scalar StarLAN.host[0].pingApp[29] numLost:last 93
attr interpolationmode none
attr title "pings lost, last"
scalar StarLAN.host[0].pingApp[29] rtt:mean 0.01806608980841
attr interpolationmode none
attr title "ping round-trip time, mean"
attr unit s
scalar StarLAN.host[0].pingApp[30] "Pings sent" 194
scalar StarLAN.host[0].pingApp[30] "ping loss rate (%)" 48.969072164948
scalar StarLAN.host[0].pingApp[30] "ping out-of-order rate (%)" 0
scalar StarLAN.host[0].pingApp[30] pingRxSeq:count 69
attr interpolationmode none
attr title "ping rx seq, count"
scalar StarLAN.host[0].pingApp[30] pingTxSeq:count 146
attr interpolationmode none
attr title "ping tx seq, count"
scalar StarLAN.host[0].pingApp[30] numOutOfOrderArrivals:last nan
attr interpolationmode none
attr title "ping out-of-order arrivals, last"
scalar StarLAN.host[0].pingApp[30] numLost:last 94
attr interpolationmode none
attr title "pings lost, last"
scalar StarLAN.host[0].pingApp[30] rtt:mean 0.017038313172121
attr interpolationmode none
attr title "ping round-trip time, mean"
attr unit s
scalar StarLAN.host[0].pingApp[31] "Pings sent" 195
scalar StarLAN.host[0].pingApp[31] "ping loss rate (%)" 43.589743589744
scalar StarLAN.host[0].pingApp[31] "ping out-of-order rate (%)" 0
scalar StarLAN.host[0].pingApp[31] pingRxSeq:count 86
attr interpolationmode none
attr title "ping rx seq, count"
scalar StarLAN.host[0].pingApp[31] pingTxSeq:count 146
attr interpolationmode none
attr title "ping tx seq, count"
scalar StarLAN.host[0].pingApp[31] numOutOfOrderArrivals:last nan
attr interpolationmode none
attr title "ping out-of-order arrivals, last"
scalar StarLAN.host[0].pingApp[31] numLost:last 84
attr interpolationmode none
attr title "pings lost, last"
scalar StarLAN.host[0].pingApp[31] rtt:mean 0.019141490749101
attr interpolationmode none
attr title "ping round-trip time, mean"
attr unit s
scalar StarLAN.host[0].pingApp[32] "Pings sent" 196
scalar StarLAN.host[0].pingApp[32] "ping loss rate (%)" 76.530612244898
scalar StarLAN.host[0].pingApp[32] "ping out-of-order rate (%)" 0
scalar StarLAN.host[0].pingApp[32] pingRxSeq:count 37
attr interpolationmode none
attr title "ping rx seq, count"
scalar StarLAN.host[0].pingApp[32] pingTxSeq:count 146
attr interpolationmode none
attr title "ping tx seq, count"
scalar StarLAN.host[0].pingApp[32] numOutOfOrderArrivals:last nan
attr interpolationmode none
attr title "ping out-of-order arrivals, last"
scalar StarLAN.host[0].pingApp[32] numLost:last 149
attr interpolationmode none
attr title "pings lost, last"
scalar StarLAN.host[0].pingApp[32] rtt:mean 0.018170584936762
attr interpolationmode none
attr title "ping round-trip time, mean"
attr unit s
scalar StarLAN.host[0].pingApp[33] "Pings sent" 198
scalar StarLAN.host[0].pingApp[33] "ping loss rate (%)" 47.474747474747
scalar StarLAN.host[0].pingApp[33] "ping out-of-order rate (%)" 0
scalar StarLAN.host[0].pingApp[33] pingRxSeq:count 75
attr interpolationmode none
attr title "ping rx seq, count"
scalar StarLAN.host[0].pingApp[33] pingTxSeq:count 149
attr interpolationmode none
attr title "ping tx seq, count"
scalar StarLAN.host[0].pingApp[33] numOutOfOrderArrivals:last nan
attr interpolationmode none
attr title "ping out-of-order arrivals, last"
scalar StarLAN.host[0].pingApp[33] numLost:last 94
attr interpolationmode none
attr title "pings lost, last"
scalar StarLAN.host[0].pingApp[33] rtt:mean 0.019172781497629
attr interpolationmode none
attr title "ping round-trip time, mean"
attr unit s
scalar StarLAN.host[0].pingApp[34] "Pings sent" 193
scalar StarLAN.host[0].pingApp[34] "ping loss rate (%)" 72.538860103627
scalar StarLAN.host[0].pingApp[34] "ping out-of-order rate (%)" 0
scalar StarLAN.host[0].pingApp[34] pingRxSeq:count 42
attr interpolationmode none
attr title "ping rx seq, count"
scalar StarLAN.host[0].pingApp[34] pingTxSeq:count 145
attr interpolationmode none
attr title "ping tx seq, count"
scalar StarLAN.host[0].pingApp[34] numOutOfOrderArrivals:last nan
attr interpolationmode none
attr title "ping out-of-order arrivals, last"
scalar StarLAN.host[0].pingApp[34] numLost:last 138
attr interpolationmode none
attr title "pings lost, last"
scalar StarLAN.host[0].pingApp[34] rtt:mean 0.020073640473296
attr interpolationmode none
attr title "ping round-trip time, mean"
attr unit s
scalar StarLAN.host[0].pingApp[35] "Pings sent" 198
scalar StarLAN.host[0].pingApp[35] "ping loss rate (%)" 46.464646464646
scalar StarLAN.host[0].pingApp[35] "ping out-of-order rate (%)" 0.50505050505051
scalar StarLAN.host[0].pingApp[35] pingRxSeq:count 80
attr interpolationmode none
attr title "ping rx seq, count"
scalar StarLAN.host[0].pingApp[35] pingTxSeq:count 147
attr interpolationmode none
attr title "ping tx seq, count"
scalar StarLAN.host[0].pingApp[35] numOutOfOrderArrivals:last 1
attr interpolationmode none
attr title "ping out-of-order arrivals, last"
scalar StarLAN.host[0].pingApp[35] numLost:last 92
attr interpolationmode none
attr title "pings lost, last"
scalar StarLAN.host[0].pingApp[35] rtt:mean 0.019138562721095
attr interpolationmode none
attr title "ping round-trip time, mean"
attr unit s
scalar StarLAN.host[0].pingApp[36] "Pings sent" 190
scalar StarLAN.host[0].pingApp[36] "ping loss rate (%)" 72.631578947368
scalar StarLAN.host[0].pingApp[36] "ping out-of-order rate (%)" 0
scalar StarLAN.host[0].pingApp[36] pingRxSeq:count 37
attr interpolationmode none
attr title "ping rx seq, count"
scalar StarLAN.host[0].pingApp[36] pingTxSeq:count 144
attr interpolationmode none
attr title "ping tx seq, count"
scalar StarLAN.host[0].pingApp[36] numOutOfOrderArrivals:last nan
attr interpolationmode none
attr title "ping out-of-order arrivals, last"
scalar StarLAN.host[0].pingApp[36] numLost:last 138
attr interpolationmode none
attr title "pings lost, last"
scalar StarLAN.host[0].pingApp[36] rtt:mean 0.02135679086881
attr interpolationmode none
attr title "ping round-trip time, mean"
attr unit s
scalar StarLAN.host[0].pingApp[37] "Pings sent" 196
scalar StarLAN.host[0].pingApp[37] "ping loss rate (%)" 43.367346938776
scalar StarLAN.host[0].pingApp[37] "ping out-of-order rate (%)" 0
scalar StarLAN.host[0].pingApp[37] pingRxSeq:count 85
attr interpolationmode none
attr title "ping rx seq, count"
scalar StarLAN.host[0].pingApp[37] pingTxSeq:count 148
attr interpolationmode none
attr title "ping tx seq, count"
scalar StarLAN.host[0].pingApp[37] numOutOfOrderArrivals:last nan
attr interpolationmode none
attr title "ping out-of-order arrivals, last"
scalar StarLAN.host[0].pingApp[37] numLost:last 84
attr interpolationmode none
attr title "pings lost, last"
scalar StarLAN.host[0].pingApp[37] rtt:mean 0.019747240644219
attr interpolationmode none
attr title "ping round-trip time, mean"
attr unit s
scalar StarLAN.host[0].pingApp[38] "Pings sent" 189
scalar StarLAN.host[0].pingApp[38] "ping loss rate (%)" 75.661375661376
scalar StarLAN.host[0].pingApp[38] "ping out-of-order rate (%)" 0
scalar StarLAN.host[0].pingApp[38] pingRxSeq:count 35
attr interpolationmode none
attr title "ping rx seq, count"
scalar StarLAN.host[0].pingApp[38] pingTxSeq:count 148
attr interpolationmode none
attr title "ping tx seq, count"
scalar StarLAN.host[0].pingApp[38] numOutOfOrderArrivals:last nan
attr interpolationmode none
attr title "ping out-of-order arrivals, last"
scalar StarLAN.host[0].pingApp[38] numLost:last 139
attr interpolationmode none
attr title "pings lost, last"
scalar StarLAN.host[0].pingApp[38] rtt:mean 0.018655632236933
attr interpolationmode none
attr title "ping round-trip time, mean"
attr unit s
scalar StarLAN.host[0].pingApp[39] "Pings sent" 194
scalar StarLAN.host[0].pingApp[39] "ping loss rate (%)" 79.381443298969
scalar StarLAN.host[0].pingApp[39] "ping out-of-order rate (%)" 0
scalar StarLAN.host[0].pingApp[39] pingRxSeq:count 31
attr interpolationmode none
attr title "ping rx seq, count"
scalar StarLAN.host[0].pingApp[39] pingTxSeq:count 144
attr interpolationmode none
attr title "ping tx seq, count"
scalar StarLAN.host[0].pingApp[39] numOutOfOrderArrivals:last nan
attr interpolationmode none
attr title "ping out-of-order arrivals, last"
scalar StarLAN.host[0].pingApp[39] numLost:last 141
attr interpolationmode none
attr title "pings lost, last"
scalar StarLAN.host[0].pingApp[39] rtt:mean 0.019048015018412
attr interpolationmode none
attr title "ping round-trip time, mean"
attr unit s
scalar StarLAN.host[0].pingApp[40] "Pings sent" 175
scalar StarLAN.host[0].pingApp[40] "ping loss rate (%)" 53.714285714286
scalar StarLAN.host[0].pingApp[40] "ping out-of-order rate (%)" 0
scalar StarLAN.host[0].pingApp[40] pingRxSeq:count 63
attr interpolationmode none
attr title "ping rx seq, count"
scalar StarLAN.host[0].pingApp[40] pingTxSeq:count 135
attr interpolationmode none
attr title "ping tx seq, count"
scalar StarLAN.host[0].pingApp[40] numOutOfOrderArrivals:last nan
attr interpolationmode none
attr title "ping out-of-order arrivals, last"
scalar StarLAN.host[0].pingApp[40] numLost:last 93
attr interpolationmode none
attr title "pings lost, last"
scalar StarLAN.host[0].pingApp[40] rtt:mean 0.017190140687154
attr interpolationmode none
attr title "ping round-trip time, mean"
attr unit s
scalar StarLAN.host[0].pingApp[41] "Pings sent" 197
scalar StarLAN.host[0].pingApp[41] "ping loss rate (%)" 72.58883248731
scalar StarLAN.host[0].pingApp[41] "ping out-of-order rate (%)" 0
scalar StarLAN.host[0].pingApp[41] pingRxSeq:count 39
attr interpolationmode none
attr title "ping rx seq, count"
scalar StarLAN.host[0].pingApp[41] pingTxSeq:count 152
attr interpolationmode none
attr title "ping tx seq, count"
scalar StarLAN.host[0].pingApp[41] numOutOfOrderArrivals:last nan
attr interpolationmode none
attr title "ping out-of-order arrivals, last"
scalar StarLAN.host[0].pingApp[41] numLost:last 143
attr interpolationmode none
attr title "pings lost, last"
scalar StarLAN.host[0].pingApp[41] rtt:mean 0.021598578493417
attr interpolationmode none
attr title "ping round-trip time, mean"
attr unit s
scalar StarLAN.host[0].pingApp[42] "Pings sent" 195
scalar StarLAN.host[0].pingApp[42] "ping loss rate (%)" 48.205128205128
scalar StarLAN.host[0].pingApp[42] "ping out-of-order rate (%)" 0
scalar StarLAN.host[0].pingApp[42] pingRxSeq:count 84
attr interpolationmode none
attr title "ping rx seq, count"
scalar StarLAN.host[0].pingApp[42] pingTxSeq:count 154
attr interpolationmode none
attr title "ping tx seq, count"
scalar StarLAN.host[0].pingApp[42] numOutOfOrderArrivals:last nan
attr interpolationmode none
attr title "ping out-of-order arrivals, last"
scalar StarLAN.host[0].pingApp[42] numLost:last 94
attr interpolationmode none
attr title "pings lost, last"
scalar StarLAN.host[0].pingApp[42] rtt:mean 0.019089183702217
attr interpolationmode none
attr title "ping round-trip time, mean"
attr unit s
scalar StarLAN.host[0].pingApp[43] "Pings sent" 195
scalar StarLAN.host[0].pingApp[43] "ping loss rate (%)" 45.641025641026
scalar StarLAN.host[0].pingApp[43] "ping out-of-order rate (%)" 0
scalar StarLAN.host[0].pingApp[43] pingRxSeq:count 76
attr interpolationmode none
attr title "ping rx seq, count"
scalar StarLAN.host[0].pingApp[43] pingTxSeq:count 149
attr interpolationmode none
attr title "ping tx seq, count"
scalar StarLAN.host[0].pingApp[43] numOutOfOrderArrivals:last nan
attr interpolationmode none
attr title "ping out-of-order arrivals, last"
scalar StarLAN.host[0].pingApp[43] numLost:last 89
attr interpolationmode none
attr title "pings lost, last"
scalar StarLAN.host[0].pingApp[43] rtt:mean 0.017493676630213
attr interpolationmode none
attr title "ping round-trip time, mean"
attr unit s
scalar StarLAN.host[0].pingApp[44] "Pings sent" 192
scalar StarLAN.host[0].pingApp[44] "ping loss rate (%)" 69.791666666667
scalar StarLAN.host[0].pingApp[44] "ping out-of-order rate (%)" 0
scalar StarLAN.host[0].pingApp[44] pingRxSeq:count 43
attr interpolationmode none
attr title "ping rx seq, count"
scalar StarLAN.host[0].pingApp[44] pingTxSeq:count 147
attr interpolationmode none
attr title "ping tx seq, count"
scalar StarLAN.host[0].pingApp[44] numOutOfOrderArrivals:last nan
attr interpolationmode none
attr title "ping out-of-order arrivals, last"
scalar StarLAN.host[0].pingApp[44] numLost:last 133
attr interpolationmode none
attr title "pings lost, last"
scalar StarLAN.host[0].pingApp[44] rtt:mean 0.020356620033538
attr interpolationmode none
attr title "ping round-trip time, mean"
attr unit s
scalar StarLAN.host[0].pingApp[45] "Pings sent" 193
scalar StarLAN.host[0].pingApp[45] "ping loss rate (%)" 79.79274611399
scalar StarLAN.host[0].pingApp[45] "ping out-of-order rate (%)" 0
scalar StarLAN.host[0].pingApp[45] pingRxSeq:count 29
attr interpolationmode none
attr title "ping rx seq, count"
scalar StarLAN.host[0].pingApp[45] pingTxSeq:count 148
attr interpolationmode none
attr title "ping tx seq, count"
scalar StarLAN.host[0].pingApp[45] numOutOfOrderArrivals:last nan
attr interpolationmode none
attr title "ping out-of-order arrivals, last"
scalar StarLAN.host[0].pingApp[45] numLost:last 153
attr interpolationmode none
attr title "pings lost, last"
scalar StarLAN.host[0].pingApp[45] rtt:mean 0.020947919858118
attr interpolationmode none
attr title "ping round-trip time, mean"
attr unit s
scalar StarLAN.host[0].pingApp[46] "Pings sent" 202
scalar StarLAN.host[0].pingApp[46] "ping loss rate (%)" 75.247524752475
scalar StarLAN.host[0].pingApp[46] "ping out-of-order rate (%)" 0
scalar StarLAN.host[0].pingApp[46] pingRxSeq:count 35
attr interpolationmode none
attr title "ping rx seq, count"
scalar StarLAN.host[0].pingApp[46] pingTxSeq:count 152
attr interpolationmode none
attr title "ping tx seq, count"
scalar StarLAN.host[0].pingApp[46] numOutOfOrderArrivals:last nan
attr interpolationmode none
attr title "ping out-of-order arrivals, last"
scalar StarLAN.host[0].pingApp[46] numLost:last 151
attr interpolationmode none
attr title "pings lost, last"
scalar StarLAN.host[0].pingApp[46] rtt:mean 0.0189888965495
attr interpolationmode none
attr title "ping round-trip time, mean"
attr unit s
scalar StarLAN.host[0].pingApp[47] "Pings sent" 203
scalar StarLAN.host[0].pingApp[47] "ping loss rate (%)" 49.261083743842
scalar StarLAN.host[0].pingApp[47] "ping out-of-order rate (%)" 0.49261083743842
scalar StarLAN.host[0].pingApp[47] pingRxSeq:count 80
attr interpolationmode none
attr title "ping rx seq, count"
scalar StarLAN.host[0].pingApp[47] pingTxSeq:count 152
attr interpolationmode none
attr title "ping tx seq, count"
scalar StarLAN.host[0].pingApp[47] numOutOfOrderArrivals:last 1
attr interpolationmode none
attr title "ping out-of-order arrivals, last"
scalar StarLAN.host[0].pingApp[47] numLost:last 98
attr interpolationmode none
attr title "pings lost, last"
scalar StarLAN.host[0].pingApp[47] rtt:mean 0.018448059243677
attr interpolationmode none
attr title "ping round-trip time, mean"
attr unit s
scalar StarLAN.host[0].pingApp[48] "Pings sent" 197
scalar StarLAN.host[0].pingApp[48] "ping loss rate (%)" 42.131979695431
scalar StarLAN.host[0].pingApp[48] "ping out-of-order rate (%)" 0.50761421319797
scalar StarLAN.host[0].pingApp[48] pingRxSeq:count 82
attr interpolationmode none
attr title "ping rx seq, count"
scalar StarLAN.host[0].pingApp[48] pingTxSeq:count 154
attr interpolationmode none
attr title "ping tx seq, count"
scalar StarLAN.host[0].pingApp[48] numOutOfOrderArrivals:last 1
attr interpolationmode none
attr title "ping out-of-order arrivals, last"
scalar StarLAN.host[0].pingApp[48] numLost:last 82
attr interpolationmode none
attr title "pings lost, last"
scalar StarLAN.host[0].pingApp[48] rtt:mean 0.019093076086175
attr interpolationmode none
attr title "ping round-trip time, mean"
attr unit s
scalar StarLAN.host[0].pingApp[49] "Pings sent" 185
scalar StarLAN.host[0].pingApp[49] "ping loss rate (%)" 49.72972972973
scalar StarLAN.host[0].pingApp[49] "ping out-of-order rate (%)" 0
scalar StarLAN.host[0].pingApp[49] pingRxSeq:count 64
attr interpolationmode none
attr title "ping rx seq, count"
scalar StarLAN.host[0].pingApp[49] pingTxSeq:count 140
attr interpolationmode none
attr title "ping tx seq, count"
scalar StarLAN.host[0].pingApp[49] numOutOfOrderArrivals:last nan
attr interpolationmode none
attr title "ping out-of-order arrivals, last"
scalar StarLAN.host[0].pingApp[49] numLost:last 92
attr interpolationmode none
attr title "pings lost, last"
scalar StarLAN.host[0].pingApp[49] rtt:mean 0.017793261844321
attr interpolationmode none
attr title "ping round-trip time, mean"
attr unit s
scalar StarLAN.host[0].pingApp[50] "Pings sent" 191
scalar StarLAN.host[0].pingApp[50] "ping loss rate (%)" 60.732984293194
scalar StarLAN.host[0].pingApp[50] "ping out-of-order rate (%)" 0
scalar StarLAN.host[0].pingApp[50] pingRxSeq:count 61
attr interpolationmode none
attr title "ping rx seq, count"
scalar StarLAN.host[0].pingApp[50] pingTxSeq:count 143
attr interpolationmode none
attr title "ping tx seq, count"
scalar StarLAN.host[0].pingApp[50] numOutOfOrderArrivals:last nan
attr interpolationmode none
attr title "ping out-of-order arrivals, last"
scalar StarLAN.host[0].pingApp[50] numLost:last 116
attr interpolationmode none
attr title "pings lost, last"
scalar StarLAN.host[0].pingApp[50] rtt:mean 0.017896496913981
attr interpolationmode none
attr title "ping round-trip time, mean"
attr unit s
scalar StarLAN.host[0].pingApp[51] "Pings sent" 193
scalar StarLAN.host[0].pingApp[51] "ping loss rate (%)" 71.502590673575
scalar StarLAN.host[0].pingApp[51] "ping out-of-order rate (%)" 0
scalar StarLAN.host[0].pingApp[51] pingRxSeq:count 39
attr interpolationmode none
attr title "ping rx seq, count"
scalar StarLAN.host[0].pingApp[51] pingTxSeq:count 144
attr interpolationmode none
attr title "ping tx seq, count"
scalar StarLAN.host[0].pingApp[51] numOutOfOrderArrivals:last nan
attr interpolationmode none
attr title "ping out-of-order arrivals, last"
scalar StarLAN.host[0].pingApp[51] numLost:last 126
attr interpolationmode none
attr title "pings lost, last"
scalar StarLAN.host[0].pingApp[51] rtt:mean 0.019902468440577
attr interpolationmode none
attr title "ping round-trip time, mean"
attr unit s
scalar StarLAN.host[0].pingApp[52] "Pings sent" 197
scalar StarLAN.host[0].pingApp[52] "ping loss rate (%)" 71.573604060914
scalar StarLAN.host[0].pingApp[52] "ping out-of-order rate (%)" 0
scalar StarLAN.host[0].pingApp[52] pingRxSeq:count 41
attr interpolationmode none
attr title "ping rx seq, count"
scalar StarLAN.host[0].pingApp[52] pingTxSeq:count 149
attr interpolationmode none
attr title "ping tx seq, count"
scalar StarLAN.host[0].pingApp[52] numOutOfOrderArrivals:last nan
attr interpolationmode none
attr title "ping out-of-order arrivals, last"
scalar StarLAN.host[0].pingApp[52] numLost:last 137
attr interpolationmode none
attr title "pings lost, last"
scalar StarLAN.host[0].pingApp[52] rtt:mean 0.017957483103875
attr interpolationmode none
attr title "ping round-trip time, mean"
attr unit s
scalar StarLAN.host[0].pingApp[53] "Pings sent" 189
scalar StarLAN.host[0].pingApp[53] "ping loss rate (%)" 78.306878306878
scalar StarLAN.host[0].pingApp[53] "ping out-of-order rate (%)" 0
scalar StarLAN.host[0].pingApp[53] pingRxSeq:count 27
attr interpolationmode none
attr title "ping rx seq, count"
scalar StarLAN.host[0].pingApp[53] pingTxSeq:count 141
attr interpolationmode none
attr title "ping tx seq, count"
scalar StarLAN.host[0].pingApp[53] numOutOfOrderArrivals:last nan
attr interpolationmode none
attr title "ping out-of-order arrivals, last"
scalar StarLAN.host[0].pingApp[53] numLost:last 148
attr interpolationmode none
attr title "pings lost, last"
scalar StarLAN.host[0].pingApp[53] rtt:mean 0.0191277635817
attr interpolationmode none
attr title "ping round-trip time, mean"
attr unit s
scalar StarLAN.host[0].pingApp[54] "Pings sent" 201
scalar StarLAN.host[0].pingApp[54] "ping loss rate (%)" 76.119402985075
scalar StarLAN.host[0].pingApp[54] "ping out-of-order rate (%)" 0
scalar StarLAN.host[0].pingApp[54] pingRxSeq:count 33
attr interpolationmode none
attr title "ping rx seq, count"
scalar StarLAN.host[0].pingApp[54] pingTxSeq:count 148
attr interpolationmode none
attr title "ping tx seq, count"
scalar StarLAN.host[0].pingApp[54] numOutOfOrderArrivals:last nan
attr interpolationmode none
attr title "ping out-of-order arrivals, last"
scalar StarLAN.host[0].pingApp[54] numLost:last 153
attr interpolationmode none
attr title "pings lost, last"
scalar StarLAN.host[0].pingApp[54] rtt:mean 0.0196248966353
attr interpolationmode none
attr title "ping round-trip time, mean"
attr unit s
scalar StarLAN.host[0].pingApp[55] "Pings sent" 194
scalar StarLAN.host[0].pingApp[55] "ping loss rate (%)" 71.134020618557
scalar StarLAN.host[0].pingApp[55] "ping out-of-order rate (%)" 0
scalar StarLAN.host[0].pingApp[55] pingRxSeq:count 40
attr interpolationmode none
attr title "ping rx seq, count"
scalar StarLAN.host[0].pingApp[55] pingTxSeq:count 146
attr interpolationmode none
attr title "ping tx seq, count"
scalar StarLAN.host[0].pingApp[55] numOutOfOrderArrivals:last nan
attr interpolationmode none
attr title "ping out-of-order arrivals, last"
scalar StarLAN.host[0].pingApp[55] numLost:last 131
attr interpolationmode none
attr title "pings lost, last"
scalar StarLAN.host[0].pingApp[55] rtt:mean 0.020258443651652
attr interpolationmode none
attr title "ping round-trip time, mean"
attr unit s
scalar StarLAN.host[0].pingApp[56] "Pings sent" 193
scalar StarLAN.host[0].pingApp[56] "ping loss rate (%)" 76.165803108808
scalar StarLAN.host[0].pingApp[56] "ping out-of-order rate (%)" 0
scalar StarLAN.host[0].pingApp[56] pingRxSeq:count 34
attr interpolationmode none
attr title "ping rx seq, count"
scalar StarLAN.host[0].pingApp[56] pingTxSeq:count 144
attr interpolationmode none
attr title "ping tx seq, count"
scalar StarLAN.host[0].pingApp[56] numOutOfOrderArrivals:last nan
attr interpolationmode none
attr title "ping out-of-order arrivals, last"
scalar StarLAN.host[0].pingApp[56] numLost:last 146
attr interpolationmode none
attr title "pings lost, last"
scalar StarLAN.host[0].pingApp[56] rtt:mean 0.020078364824957
attr interpolationmode none
attr title "ping round-trip time, mean"
attr unit s
scalar StarLAN.host[0].pingApp[57] "Pings sent" 197
scalar StarLAN.host[0].pingApp[57] "ping loss rate (%)" 74.111675126904
scalar StarLAN.host[0].pingApp[57] "ping out-of-order rate (%)" 0
scalar StarLAN.host[0].pingApp[57] pingRxSeq:count 40
attr interpolationmode none
attr title "ping rx seq, count"
scalar StarLAN.host[0].pingApp[57] pingTxSeq:count 145
attr interpolationmode none
attr title "ping tx seq, count"
scalar StarLAN.host[0].pingApp[57] numOutOfOrderArrivals:last nan
attr interpolationmode none
attr title "ping out-of-order arrivals, last"
scalar StarLAN.host[0].pingApp[57] numLost:last 146
attr interpolationmode none
attr title "pings lost, last"
scalar StarLAN.host[0].pingApp[57] rtt:mean 0.020536953088143
attr interpolationmode none
attr title "ping round-trip time, mean"
attr unit s
scalar StarLAN.host[0].pingApp[58] "Pings sent" 201
scalar StarLAN.host[0].pingApp[58] "ping loss rate (%)" 53.731343283582
scalar StarLAN.host[0].pingApp[58] "ping out-of-order rate (%)" 0
scalar StarLAN.host[0].pingApp[58] pingRxSeq:count 67
attr interpolationmode none
attr title "ping rx seq, count"
scalar StarLAN.host[0].pingApp[58] pingTxSeq:count 152
attr interpolationmode none
attr title "ping tx seq, count"
scalar StarLAN.host[0].pingApp[58] numOutOfOrderArrivals:last nan
attr interpolationmode none
attr title "ping out-of-order arrivals, last"
scalar StarLAN.host[0].pingApp[58] numLost:last 108
attr interpolationmode none
attr title "pings lost, last"
scalar StarLAN.host[0].pingApp[58] rtt:mean 0.018124244967
attr interpolationmode none
attr title "ping round-trip time, mean"
attr unit s
scalar StarLAN.host[0].pingApp[59] "Pings sent" 194
scalar StarLAN.host[0].pingApp[59] "ping loss rate (%)" 49.484536082474
scalar StarLAN.host[0].pingApp[59] "ping out-of-order rate (%)" 0
scalar StarLAN.host[0].pingApp[59] pingRxSeq:count 70
attr interpolationmode none
attr title "ping rx seq, count"
scalar StarLAN.host[0].pingApp[59] pingTxSeq:count 145
attr interpolationmode none
attr title "ping tx seq, count"
scalar StarLAN.host[0].pingApp[59] numOutOfOrderArrivals:last nan
attr interpolationmode none
attr title "ping out-of-order arrivals, last"
scalar StarLAN.host[0].pingApp[59] numLost:last 96
attr interpolationmode none
attr title "pings lost, last"
scalar StarLAN.host[0].pingApp[59] rtt:mean 0.018564115267443
attr interpolationmode none
attr title "ping round-trip time, mean"
attr unit s
scalar StarLAN.host[0].pingApp[60] "Pings sent" 201
scalar StarLAN.host[0].pingApp[60] "ping loss rate (%)" 77.114427860697
scalar StarLAN.host[0].pingApp[60] "ping out-of-order rate (%)" 0
scalar StarLAN.host[0].pingApp[60] pingRxSeq:count 37
attr interpolationmode none
attr title "ping rx seq, count"
scalar StarLAN.host[0].pingApp[60] pingTxSeq:count 148
attr interpolationmode none
attr title "ping tx seq, count"
scalar StarLAN.host[0].pingApp[60] numOutOfOrderArrivals:last nan
attr interpolationmode none
attr title "ping out-of-order arrivals, last"
scalar StarLAN.host[0].pingApp[60] numLost:last 147
attr interpolationmode none
attr title "pings lost, last"
scalar StarLAN.host[0].pingApp[60] rtt:mean 0.0196430176162
attr interpolationmode none
attr title "ping round-trip time, mean"
attr unit s
scalar StarLAN.host[0].pingApp[61] "Pings sent" 184
scalar StarLAN.host[0].pingApp[61] "ping loss rate (%)" 75
scalar StarLAN.host[0].pingApp[61] "ping out-of-order rate (%)" 0
scalar StarLAN.host[0].pingApp[61] pingRxSeq:count 32
attr interpolationmode none
attr title "ping rx seq, count"
scalar StarLAN.host[0].pingApp[61] pingTxSeq:count 141
attr interpolationmode none
attr title "ping tx seq, count"
scalar StarLAN.host[0].pingApp[61] numOutOfOrderArrivals:last nan
attr interpolationmode none
attr title "ping out-of-order arrivals, last"
scalar StarLAN.host[0].pingApp[61] numLost:last 137
attr interpolationmode none
attr title "pings lost, last"
scalar StarLAN.host[0].pingApp[61] rtt:mean 0.019699514128118
attr interpolationmode none
attr title "ping round-trip time, mean"
attr unit s
scalar StarLAN.host[0].pingApp[62] "Pings sent" 202
scalar StarLAN.host[0].pingApp[62] "ping loss rate (%)" 80.693069306931
scalar StarLAN.host[0].pingApp[62] "ping out-of-order rate (%)" 0
scalar StarLAN.host[0].pingApp[62] pingRxSeq:count 25
attr interpolationmode none
attr title "ping rx seq, count"
scalar StarLAN.host[0].pingApp[62] pingTxSeq:count 151
attr interpolationmode none
attr title "ping tx seq, count"
scalar StarLAN.host[0].pingApp[62] numOutOfOrderArrivals:last nan
attr interpolationmode none
attr title "ping out-of-order arrivals, last"
scalar StarLAN.host[0].pingApp[62] numLost:last 144
attr interpolationmode none
attr title "pings lost, last"
scalar StarLAN.host[0].pingApp[62] rtt:mean 0.019375683514222
attr interpolationmode none
attr title "ping round-trip time, mean"
attr unit s
scalar StarLAN.host[0].pingApp[63] "Pings sent" 195
scalar StarLAN.host[0].pingApp[63] "ping loss rate (%)" 74.871794871795
scalar StarLAN.host[0].pingApp[63] "ping out-of-order rate (%)" 0
scalar StarLAN.host[0].pingApp[63] pingRxSeq:count 37
attr interpolationmode none
attr title "ping rx seq, count"
scalar StarLAN.host[0].pingApp[63] pingTxSeq:count 142
attr interpolationmode none
attr title "ping tx seq, count"
scalar StarLAN.host[0].pingApp[63] numOutOfOrderArrivals:last nan
attr interpolationmode none
attr title "ping out-of-order arrivals, last"
scalar StarLAN.host[0].pingApp[63] numLost:last 132
attr interpolationmode none
attr title "pings lost, last"
scalar StarLAN.host[0].pingApp[63] rtt:mean 0.019630209572957
attr interpolationmode none
attr title "ping round-trip time, mean"
attr unit s
scalar StarLAN.host[0].pingApp[64] "Pings sent" 179
scalar StarLAN.host[0].pingApp[64] "ping loss rate (%)" 79.888268156425
scalar StarLAN.host[0].pingApp[64] "ping out-of-order rate (%)" 0
scalar StarLAN.host[0].pingApp[64] pingRxSeq:count 26
attr interpolationmode none
attr title "ping rx seq, count"
scalar StarLAN.host[0].pingApp[64] pingTxSeq:count 133
attr interpolationmode none
attr title "ping tx seq, count"
scalar StarLAN.host[0].pingApp[64] numOutOfOrderArrivals:last nan
attr interpolationmode none
attr title "ping out-of-order arrivals, last"
scalar StarLAN.host[0].pingApp[64] numLost:last 141
attr interpolationmode none
attr title "pings lost, last"
scalar StarLAN.host[0].pingApp[64] rtt:mean 0.018956614350071
attr interpolationmode none
attr title "ping round-trip time, mean"
attr unit s
scalar StarLAN.host[0].pingApp[65] "Pings sent" 194
scalar StarLAN.host[0].pingApp[65] "ping loss rate (%)" 43.298969072165
scalar StarLAN.host[0].pingApp[65] "ping out-of-order rate (%)" 0
scalar StarLAN.host[0].pingApp[65] pingRxSeq:count 85
attr interpolationmode none
attr title "ping rx seq, count"
scalar StarLAN.host[0].pingApp[65] pingTxSeq:count 152
attr interpolationmode none
attr title "ping tx seq, count"
scalar StarLAN.host[0].pingApp[65] numOutOfOrderArrivals:last nan
attr interpolationmode none
attr title "ping out-of-order arrivals, last"
scalar StarLAN.host[0].pingApp[65] numLost:last 84
attr interpolationmode none
attr title "pings lost, last"
scalar StarLAN.host[0].pingApp[65] rtt:mean 0.018819493020739
attr interpolationmode none
attr title "ping round-trip time, mean"
attr unit s
scalar StarLAN.host[0].pingApp[66] "Pings sent" 211
scalar StarLAN.host[0].pingApp[66] "ping loss rate (%)" 79.620853080569
scalar StarLAN.host[0].pingApp[66] "ping out-of-order rate (%)" 0
scalar StarLAN.host[0].pingApp[66] pingRxSeq:count 32
attr interpolationmode none
attr title "ping rx seq, count"
scalar StarLAN.host[0].pingApp[66] pingTxSeq:count 161
attr interpolationmode none
attr title "ping tx seq, count"
scalar StarLAN.host[0].pingApp[66] numOutOfOrderArrivals:last nan
attr interpolationmode none
attr title "ping out-of-order arrivals, last"
scalar StarLAN.host[0].pingApp[66] numLost:last 162
attr interpolationmode none
attr title "pings lost, last"
scalar StarLAN.host[0].pingApp[66] rtt:mean 0.019713850197375
attr interpolationmode none
attr title "ping round-trip time, mean"
attr unit s
scalar StarLAN.host[0].pingApp[67] "Pings sent" 195
scalar StarLAN.host[0].pingApp[67] "ping loss rate (%)" 43.589743589744
scalar StarLAN.host[0].pingApp[67] "ping out-of-order rate (%)" 0.51282051282051
scalar StarLAN.host[0].pingApp[67] pingRxSeq:count 82
attr interpolationmode none
attr title "ping rx seq, count"
scalar StarLAN.host[0].pingApp[67] pingTxSeq:count 146
attr interpolationmode none
attr title "ping tx seq, count"
scalar StarLAN.host[0].pingApp[67] numOutOfOrderArrivals:last 1
attr interpolationmode none
attr title "ping out-of-order arrivals, last"
scalar StarLAN.host[0].pingApp[67] numLost:last 85
attr interpolationmode none
attr title "pings lost, last"
scalar StarLAN.host[0].pingApp[67] rtt:mean 0.019414502353955
attr interpolationmode none
attr title "ping round-trip time, mean"
attr unit s
scalar StarLAN.host[0].pingApp[68] "Pings sent" 194
scalar StarLAN.host[0].pingApp[68] "ping loss rate (%)" 42.268041237113
scalar StarLAN.host[0].pingApp[68] "ping out-of-order rate (%)" 0
scalar StarLAN.host[0].pingApp[68] pingRxSeq:count 82
attr interpolationmode none
attr title "ping rx seq, count"
scalar StarLAN.host[0].pingApp[68] pingTxSeq:count 145
attr interpolationmode none
attr title "ping tx seq, count"
scalar StarLAN.host[0].pingApp[68] numOutOfOrderArrivals:last nan
attr interpolationmode none
attr title "ping out-of-order arrivals, last"
scalar StarLAN.host[0].pingApp[68] numLost:last 81
attr interpolationmode none
attr title "pings lost, last"
scalar StarLAN.host[0].pingApp[68] rtt:mean 0.019693158925647
attr interpolationmode none
attr title "ping round-trip time, mean"
attr unit s
scalar StarLAN.host[0].pingApp[69] "Pings sent" 192
scalar StarLAN.host[0].pingApp[69] "ping loss rate (%)" 72.916666666667
scalar StarLAN.host[0].pingApp[69] "ping out-of-order rate (%)" 0
scalar StarLAN.host[0].pingApp[69] pingRxSeq:count 38
attr interpolationmode none
attr title "ping rx seq, count"
scalar StarLAN.host[0].pingApp[69] pingTxSeq:count 142
attr interpolationmode none
attr title "ping tx seq, count"
scalar StarLAN.host[0].pingApp[69] numOutOfOrderArrivals:last nan
attr interpolationmode none
attr title "ping out-of-order arrivals, last"
scalar StarLAN.host[0].pingApp[69] numLost:last 137
attr interpolationmode none
attr title "pings lost, last"
scalar StarLAN.host[0].pingApp[69] rtt:mean 0.020594005092042
attr interpolationmode none
attr title "ping round-trip time, mean"
attr unit s
scalar StarLAN.host[0].pingApp[70] "Pings sent" 187
scalar StarLAN.host[0].pingApp[70] "ping loss rate (%)" 77.005347593583
scalar StarLAN.host[0].pingApp[70] "ping out-of-order rate (%)" 0
scalar StarLAN.host[0].pingApp[70] pingRxSeq:count 35
attr interpolationmode none
attr title "ping rx seq, count"
scalar StarLAN.host[0].pingApp[70] pingTxSeq:count 136
attr interpolationmode none
attr title "ping tx seq, count"
scalar StarLAN.host[0].pingApp[70] numOutOfOrderArrivals:last nan
attr interpolationmode none
attr title "ping out-of-order arrivals, last"
scalar StarLAN.host[0].pingApp[70] numLost:last 138
attr interpolationmode none
attr title "pings lost, last"
scalar StarLAN.host[0].pingApp[70] rtt:mean 0.020864157144545
attr interpolationmode none
attr title "ping round-trip time, mean"
attr unit s
scalar StarLAN.host[0].pingApp[71] "Pings sent" 196
scalar StarLAN.host[0].pingApp[71] "ping loss rate (%)" 75
scalar StarLAN.host[0].pingApp[71] "ping out-of-order rate (%)" 0
scalar StarLAN.host[0].pingApp[71] pingRxSeq:count 38
attr interpolationmode none
attr title "ping rx seq, count"
scalar StarLAN.host[0].pingApp[71] pingTxSeq:count 150
attr interpolationmode none
attr title "ping tx seq, count"
scalar StarLAN.host[0].pingApp[71] numOutOfOrderArrivals:last nan
attr interpolationmode none
attr title "ping out-of-order arrivals, last"
scalar StarLAN.host[0].pingApp[71] numLost:last 146
attr interpolationmode none
attr title "pings lost, last"
scalar StarLAN.host[0].pingApp[71] rtt:mean 0.019728719197435
attr interpolationmode none
attr title "ping round-trip time, mean"
attr unit s
scalar StarLAN.host[0].pingApp[72] "Pings sent" 179
scalar StarLAN.host[0].pingApp[72] "ping loss rate (%)" 45.810055865922
scalar StarLAN.host[0].pingApp[72] "ping out-of-order rate (%)" 0
scalar StarLAN.host[0].pingApp[72] pingRxSeq:count 75
attr interpolationmode none
attr title "ping rx seq, count"
scalar StarLAN.host[0].pingApp[72] pingTxSeq:count 139
attr interpolationmode none
attr title "ping tx seq, count"
scalar StarLAN.host[0].pingApp[72] numOutOfOrderArrivals:last nan
attr interpolationmode none
attr title "ping out-of-order arrivals, last"
scalar StarLAN.host[0].pingApp[72] numLost:last 80
attr interpolationmode none
attr title "pings lost, last"
scalar StarLAN.host[0].pingApp[72] rtt:mean 0.019337777602016
attr interpolationmode none
attr title "ping round-trip time, mean"
attr unit s
scalar StarLAN.host[0].pingApp[73] "Pings sent" 188
scalar StarLAN.host[0].pingApp[73] "ping loss rate (%)" 51.063829787234
scalar StarLAN.host[0].pingApp[73] "ping out-of-order rate (%)" 0
scalar StarLAN.host[0].pingApp[73] pingRxSeq:count 72
attr interpolationmode none
attr title "ping rx seq, count"
scalar StarLAN.host[0].pingApp[73] pingTxSeq:count 149
attr interpolationmode none
attr title "ping tx seq, count"
scalar StarLAN.host[0].pingApp[73] numOutOfOrderArrivals:last nan
attr interpolationmode none
attr title "ping out-of-order arrivals, last"
scalar StarLAN.host[0].pingApp[73] numLost:last 90
attr interpolationmode none
attr title "pings lost, last"
scalar StarLAN.host[0].pingApp[73] rtt:mean 0.019006664770741
attr interpolationmode none
attr title "ping round-trip time, mean"
attr unit s
scalar StarLAN.host[0].pingApp[74] "Pings sent" 186
scalar StarLAN.host[0].pingApp[74] "ping loss rate (%)" 78.494623655914
scalar StarLAN.host[0].pingApp[74] "ping out-of-order rate (%)" 0
scalar StarLAN.host[0].pingApp[74] pingRxSeq:count 27
attr interpolationmode none
attr title "ping rx seq, count"
scalar StarLAN.host[0].pingApp[74] pingTxSeq:count 136
attr interpolationmode none
attr title "ping tx seq, count"
scalar StarLAN.host[0].pingApp[74] numOutOfOrderArrivals:last nan
attr interpolationmode none
attr title "ping out-of-order arrivals, last"
scalar StarLAN.host[0].pingApp[74] numLost:last 142
attr interpolationmode none
attr title "pings lost, last"
scalar StarLAN.host[0].pingApp[74] rtt:mean 0.0187224912182
attr interpolationmode none
attr title "ping round-trip time, mean"
attr unit s
scalar StarLAN.host[0].pingApp[75] "Pings sent" 198
scalar StarLAN.host[0].pingApp[75] "ping loss rate (%)" 45.959595959596
scalar StarLAN.host[0].pingApp[75] "ping out-of-order rate (%)" 0
scalar StarLAN.host[0].pingApp[75] pingRxSeq:count 80
attr interpolationmode none
attr title "ping rx seq, count"
scalar StarLAN.host[0].pingApp[75] pingTxSeq:count 151
attr interpolationmode none
attr title "ping tx seq, count"
scalar StarLAN.host[0].pingApp[75] numOutOfOrderArrivals:last nan
attr interpolationmode none
attr title "ping out-of-order arrivals, last"
scalar StarLAN.host[0].pingApp[75] numLost:last 91
attr interpolationmode none
attr title "pings lost, last"
scalar StarLAN.host[0].pingApp[75] rtt:mean 0.01879249294407
attr interpolationmode none
attr title "ping round-trip time, mean"
attr unit s
scalar StarLAN.host[0].pingApp[76] "Pings sent" 196
scalar StarLAN.host[0].pingApp[76] "ping loss rate (%)" 78.571428571429
scalar StarLAN.host[0].pingApp[76] "ping out-of-order rate (%)" 0
scalar StarLAN.host[0].pingApp[76] pingRxSeq:count 30
attr interpolationmode none
attr title "ping rx seq, count"
scalar StarLAN.host[0].pingApp[76] pingTxSeq:count 151
attr interpolationmode none
attr title "ping tx seq, count"
scalar StarLAN.host[0].pingApp[76] numOutOfOrderArrivals:last nan
attr interpolationmode none
attr title "ping out-of-order arrivals, last"
scalar StarLAN.host[0].pingApp[76] numLost:last 146
attr interpolationmode none
attr title "pings lost, last"
scalar StarLAN.host[0].pingApp[76] rtt:mean 0.018930474356857
attr interpolationmode none
attr title "ping round-trip time, mean"
attr unit s
scalar StarLAN.host[0].pingApp[77] "Pings sent" 201
scalar StarLAN.host[0].pingApp[77] "ping loss rate (%)" 48.258706467662
scalar StarLAN.host[0].pingApp[77] "ping out-of-order rate (%)" 0
scalar StarLAN.host[0].pingApp[77] pingRxSeq:count 79
attr interpolationmode none
attr title "ping rx seq, count"
scalar StarLAN.host[0].pingApp[77] pingTxSeq:count 150
attr interpolationmode none
attr title "ping tx seq, count"
scalar StarLAN.host[0].pingApp[77] numOutOfOrderArrivals:last nan
attr interpolationmode none
attr title "ping out-of-order arrivals, last"
scalar StarLAN.host[0].pingApp[77] numLost:last 97
attr interpolationmode none
attr title "pings lost, last"
scalar StarLAN.host[0].pingApp[77] rtt:mean 0.019617827376783
attr interpolationmode none
attr title "ping round-trip time, mean"
attr unit s
scalar StarLAN.host[0].pingApp[78] "Pings sent" 192
scalar StarLAN.host[0].pingApp[78] "ping loss rate (%)" 55.208333333333
scalar StarLAN.host[0].pingApp[78] "ping out-of-order rate (%)" 0
scalar StarLAN.host[0].pingApp[78] pingRxSeq:count 68
attr interpolationmode none
attr title "ping rx seq, count"
scalar StarLAN.host[0].pingApp[78] pingTxSeq:count 148
attr interpolationmode none
attr title "ping tx seq, count"
scalar StarLAN.host[0].pingApp[78] numOutOfOrderArrivals:last nan
attr interpolationmode none
attr title "ping out-of-order arrivals, last"
scalar StarLAN.host[0].pingApp[78] numLost:last 102
attr interpolationmode none
attr title "pings lost, last"
scalar StarLAN.host[0].pingApp[78] rtt:mean 0.017336874079183
attr interpolationmode none
attr title "ping round-trip time, mean"
attr unit s
scalar StarLAN.host[0].pingApp[79] "Pings sent" 188
scalar StarLAN.host[0].pingApp[79] "ping loss rate (%)" 40.425531914894
scalar StarLAN.host[0].pingApp[79] "ping out-of-order rate (%)" 0
scalar StarLAN.host[0].pingApp[79] pingRxSeq:count 79
attr interpolationmode none
attr title "ping rx seq, count"
scalar StarLAN.host[0].pingApp[79] pingTxSeq:count 139
attr interpolationmode none
attr title "ping tx seq, count"
scalar StarLAN.host[0].pingApp[79] numOutOfOrderArrivals:last nan
attr interpolationmode none
attr title "ping out-of-order arrivals, last"
scalar StarLAN.host[0].pingApp[79] numLost:last 76
attr interpolationmode none
attr title "pings lost, last"
scalar StarLAN.host[0].pingApp[79] rtt:mean 0.019559221377176
attr interpolationmode none
attr title "ping round-trip time, mean"
attr unit s
scalar StarLAN.host[0].pingApp[80] "Pings sent" 180
scalar StarLAN.host[0].pingApp[80] "ping loss rate (%)" 46.111111111111
scalar StarLAN.host[0].pingApp[80] "ping out-of-order rate (%)" 0
scalar StarLAN.host[0].pingApp[80] pingRxSeq:count 67
attr interpolationmode none
attr title "ping rx seq, count"
scalar StarLAN.host[0].pingApp[80] pingTxSeq:count 131
attr interpolationmode none
attr title "ping tx seq, count"
scalar StarLAN.host[0].pingApp[80] numOutOfOrderArrivals:last nan
attr interpolationmode none
attr title "ping out-of-order arrivals, last"
scalar StarLAN.host[0].pingApp[80] numLost:last 83
attr interpolationmode none
attr title "pings lost, last"
scalar StarLAN.host[0].pingApp[80] rtt:mean 0.018064758664585
attr interpolationmode none
attr title "ping round-trip time, mean"
attr unit s
scalar StarLAN.host[0].pingApp[81] "Pings sent" 193
scalar StarLAN.host[0].pingApp[81] "ping loss rate (%)" 69.948186528497
scalar StarLAN.host[0].pingApp[81] "ping out-of-order rate (%)" 1.0362694300518
scalar StarLAN.host[0].pingApp[81] pingRxSeq:count 41
attr interpolationmode none
attr title "ping rx seq, count"
scalar StarLAN.host[0].pingApp[81] pingTxSeq:count 147
attr interpolationmode none
attr title "ping tx seq, count"
scalar StarLAN.host[0].pingApp[81] numOutOfOrderArrivals:last 2
attr interpolationmode none
attr title "ping out-of-order arrivals, last"
scalar StarLAN.host[0].pingApp[81] numLost:last 135
attr interpolationmode none
attr title "pings lost, last"
scalar StarLAN.host[0].pingApp[81] rtt:mean 0.021100581176276
attr interpolationmode none
attr title "ping round-trip time, mean"
attr unit s
scalar StarLAN.host[0].pingApp[82] "Pings sent" 202
scalar StarLAN.host[0].pingApp[82] "ping loss rate (%)" 77.227722772277
scalar StarLAN.host[0].pingApp[82] "ping out-of-order rate (%)" 0
scalar StarLAN.host[0].pingApp[82] pingRxSeq:count 36
attr interpolationmode none
attr title "ping rx seq, count"
scalar StarLAN.host[0].pingApp[82] pingTxSeq:count 155
attr interpolationmode none
attr title "ping tx seq, count"
scalar StarLAN.host[0].pingApp[82] numOutOfOrderArrivals:last nan
attr interpolationmode none
attr title "ping out-of-order arrivals, last"
scalar StarLAN.host[0].pingApp[82] numLost:last 155
attr interpolationmode none
attr title "pings lost, last"
scalar StarLAN.host[0].pingApp[82] rtt:mean 0.019857997648957
attr interpolationmode none
attr title "ping round-trip time, mean"
attr unit s
scalar StarLAN.host[0].pingApp[83] "Pings sent" 184
scalar StarLAN.host[0].pingApp[83] "ping loss rate (%)" 73.369565217391
scalar StarLAN.host[0].pingApp[83] "ping out-of-order rate (%)" 0
scalar StarLAN.host[0].pingApp[83] pingRxSeq:count 36
attr interpolationmode none
attr title "ping rx seq, count"
scalar StarLAN.host[0].pingApp[83] pingTxSeq:count 139
attr interpolationmode none
attr title "ping tx seq, count"
scalar StarLAN.host[0].pingApp[83] numOutOfOrderArrivals:last nan
attr interpolationmode none
attr title "ping out-of-order arrivals, last"
scalar StarLAN.host[0].pingApp[83] numLost:last 131
attr interpolationmode none
attr title "pings lost, last"
scalar StarLAN.host[0].pingApp[83] rtt:mean 0.018722293777529
attr interpolationmode none
attr title "ping round-trip time, mean"
attr unit s
scalar StarLAN.host[0].pingApp[84] "Pings sent" 188
scalar StarLAN.host[0].pingApp[84] "ping loss rate (%)" 47.340425531915
scalar StarLAN.host[0].pingApp[84] "ping out-of-order rate (%)" 0
scalar StarLAN.host[0].pingApp[84] pingRxSeq:count 76
attr interpolationmode none
attr title "ping rx seq, count"
scalar StarLAN.host[0].pingApp[84] pingTxSeq:count 144
attr interpolationmode none
attr title "ping tx seq, count"
scalar StarLAN.host[0].pingApp[84] numOutOfOrderArrivals:last nan
attr interpolationmode none
attr title "ping out-of-order arrivals, last"
scalar StarLAN.host[0].pingApp[84] numLost:last 87
attr interpolationmode none
attr title "pings lost, last"
scalar StarLAN.host[0].pingApp[84] rtt:mean 0.018614631321134
attr interpolationmode none
attr title "ping round-trip time, mean"
attr unit s
scalar StarLAN.host[0].pingApp[85] "Pings sent" 202
scalar StarLAN.host[0].pingApp[85] "ping loss rate (%)" 76.732673267327
scalar StarLAN.host[0].pingApp[85] "ping out-of-order rate (%)" 0
scalar StarLAN.host[0].pingApp[85] pingRxSeq:count 33
attr interpolationmode none
attr title "ping rx seq, count"
scalar StarLAN.host[0].pingApp[85] pingTxSeq:count 155
attr interpolationmode none
attr title "ping tx seq, count"
scalar StarLAN.host[0].pingApp[85] numOutOfOrderArrivals:last nan
attr interpolationmode none
attr title "ping out-of-order arrivals, last"
scalar StarLAN.host[0].pingApp[85] numLost:last 154
attr interpolationmode none
attr title "pings lost, last"
scalar StarLAN.host[0].pingApp[85] rtt:mean 0.018105319918937
attr interpolationmode none
[...]
field max 0.008039990174
field sum 72.132932310777
field sqrsum 0.31817832555153
attr interpolationmode none
attr title "queueing time, histogram"
bin	-inf	0
bin	-0.001381166222	0
bin	-0.0010311076605333	0
bin	-0.00068104909906667	0
bin	-0.0003309905376	1081
bin	1.9068023866667e-005	643
bin	0.00036912658533333	1004
bin	0.0007191851468	1057
bin	0.0010692437082667	1109
bin	0.0014193022697333	1139
bin	0.0017693608312	1127
bin	0.0021194193926667	1168
bin	0.0024694779541333	1187
bin	0.0028195365156	1234
bin	0.0031695950770667	1243
bin	0.0035196536385333	1239
bin	0.0038697122	1179
bin	0.0042197707614667	1240
bin	0.0045698293229333	1223
bin	0.0049198878844	1203
bin	0.0052699464458667	1104
bin	0.0056200050073333	1062
bin	0.0059700635688	842
bin	0.0063201221302667	605
bin	0.0066701806917333	328
bin	0.0070202392532	118
bin	0.0073702978146667	40
bin	0.0077203563761333	8
bin	0.0080704149376	0
bin	0.0084204734990667	0
bin	0.0087705320605333	0
bin	0.009120590622	0
scalar StarLAN.router.eth[7].queue.dataQueue dropPk:count 1527
attr interpolationmode none
attr source dropPkByQueue
attr title "dropped packets, count"
scalar StarLAN.router.eth[7].queue.dataQueue dropPk:sum(packetBytes) 1063096
attr interpolationmode none
attr source dropPkByQueue
attr title "dropped packets, sum(packetBytes)"
scalar StarLAN.router.eth[7].queue.dataQueue rcvdPk:count 23707
attr interpolationmode none
attr title "received packets, count"
scalar StarLAN.router.eth[7].queue.dataQueue rcvdPk:sum(packetBytes) 18411706
attr interpolationmode none
attr title "received packets, sum(packetBytes)"
scalar StarLAN.router.eth[7].mac "simulated time" 20
scalar StarLAN.router.eth[7].mac full-duplex 1
scalar StarLAN.router.eth[7].mac "frames/sec sent" 1471.9
scalar StarLAN.router.eth[7].mac "frames/sec rcvd" 1539
scalar StarLAN.router.eth[7].mac "bits/sec sent" 9194763.6
scalar StarLAN.router.eth[7].mac "bits/sec rcvd" 9696238.4
scalar StarLAN.router.eth[7].mac "rx channel idle (%)" 2.052656
scalar StarLAN.router.eth[7].mac "rx channel utilization (%)" 97.947344
scalar StarLAN.router.eth[7].mac "rx channel collision (%)" 0
scalar StarLAN.router.eth[7].mac collisions 0
scalar StarLAN.router.eth[7].mac backoffs 0
scalar StarLAN.router.eth[7].mac backoff:count 0
attr interpolationmode none
attr title "backoff, count"
scalar StarLAN.router.eth[7].mac collision:count 0
attr interpolationmode none
attr title "collision, count"
scalar StarLAN.router.eth[7].mac rxPkFromHL:count 22183
attr interpolationmode none
attr source rxPkFromHL
attr title "packet bytes from higher layer, count"
scalar StarLAN.router.eth[7].mac rxPkFromHL:sum(packetBytes) 17350908
attr interpolationmode none
attr source rxPkFromHL
attr title "packet bytes from higher layer, sum(packetBytes)"
scalar StarLAN.router.eth[7].mac rxPausePkUnits:count 0
attr interpolationmode none
attr title "pause units received, count"
scalar StarLAN.router.eth[7].mac rxPausePkUnits:sum 0
attr interpolationmode none
attr title "pause units received, sum"
scalar StarLAN.router.eth[7].mac txPausePkUnits:count 0
attr interpolationmode none
attr title "pause units sent, count"
scalar StarLAN.router.eth[7].mac txPausePkUnits:sum 0
attr interpolationmode none
attr title "pause units sent, sum"
scalar StarLAN.router.eth[7].mac txPk:count 22183
attr interpolationmode none
attr source txPk
attr title "packets transmitted, count"
scalar StarLAN.router.eth[7].mac txPk:sum(packetBytes) 17351051
attr interpolationmode none
attr source txPk
attr title "packets transmitted, sum(packetBytes)"
scalar StarLAN.router.eth[7].mac droppedPkNotForUs:count 0
attr interpolationmode none
attr source dropPkNotForUs
attr title "packets dropped/not for us, count"
scalar StarLAN.router.eth[7].mac droppedPkNotForUs:sum(packetBytes) 0
attr interpolationmode none
attr source dropPkNotForUs
attr title "packets dropped/not for us, sum(packetBytes)"
scalar StarLAN.router.eth[7].mac droppedPkBitError:count 0
attr interpolationmode none
attr source dropPkBitError
attr title "packets dropped/bit error, count"
scalar StarLAN.router.eth[7].mac droppedPkBitError:sum(packetBytes) 0
attr interpolationmode none
attr source dropPkBitError
attr title "packets dropped/bit error, sum(packetBytes)"
scalar StarLAN.router.eth[7].mac droppedPkIfaceDown:count 0
attr interpolationmode none
attr source dropPkIfaceDown
attr title "packets dropped/interface down, count"
scalar StarLAN.router.eth[7].mac droppedPkIfaceDown:sum(packetBytes) 0
attr interpolationmode none
attr source dropPkIfaceDown
attr title "packets dropped/interface down, sum(packetBytes)"
scalar StarLAN.router.eth[7].mac rxPkOk:count 23208
attr interpolationmode none
attr source rxPkOk
attr title "packets received OK, count"
scalar StarLAN.router.eth[7].mac rxPkOk:sum(packetBytes) 18281862
attr interpolationmode none
attr source rxPkOk
attr title "packets received OK, sum(packetBytes)"
scalar StarLAN.router.eth[7].mac passedUpPk:count 23208
attr interpolationmode none
attr source packetSentToUpper
attr title "packets passed to higher layer, count"
scalar StarLAN.router.eth[7].mac passedUpPk:sum(packetBytes) 18281862
attr interpolationmode none
attr source packetSentToUpper
attr title "packets passed to higher layer, sum(packetBytes)"
scalar StarLAN.router.eth[8].queue.pauseQueue queueLength:max nan
attr interpolationmode sample-hold
attr title "queue length, max"
scalar StarLAN.router.eth[8].queue.pauseQueue queueLength:timeavg nan
attr interpolationmode sample-hold
attr title "queue length, timeavg"
statistic StarLAN.router.eth[8].queue.pauseQueue queueingTime:histogram
field count 0
field mean nan
field stddev nan
field min nan
field max nan
field sum 0
field sqrsum 0
attr interpolationmode none
attr title "queueing time, histogram"
bin	-inf	0
bin	-0.5	0
bin	-0.46666666666667	0
bin	-0.43333333333333	0
bin	-0.4	0
bin	-0.36666666666667	0
bin	-0.33333333333333	0
bin	-0.3	0
bin	-0.26666666666667	0
bin	-0.23333333333333	0
bin	-0.2	0
bin	-0.16666666666667	0
bin	-0.13333333333333	0
bin	-0.1	0
bin	-0.066666666666667	0
bin	-0.033333333333333	0
bin	0	0
bin	0.033333333333333	0
bin	0.066666666666667	0
bin	0.1	0
bin	0.13333333333333	0
bin	0.16666666666667	0
bin	0.2	0
bin	0.23333333333333	0
bin	0.26666666666667	0
bin	0.3	0
bin	0.33333333333333	0
bin	0.36666666666667	0
bin	0.4	0
bin	0.43333333333333	0
bin	0.46666666666667	0
bin	0.5	0
scalar StarLAN.router.eth[8].queue.pauseQueue dropPk:count 0
attr interpolationmode none
attr source dropPkByQueue
attr title "dropped packets, count"
scalar StarLAN.router.eth[8].queue.pauseQueue dropPk:sum(packetBytes) 0
attr interpolationmode none
attr source dropPkByQueue
attr title "dropped packets, sum(packetBytes)"
scalar StarLAN.router.eth[8].queue.pauseQueue rcvdPk:count 0
attr interpolationmode none
attr title "received packets, count"
scalar StarLAN.router.eth[8].queue.pauseQueue rcvdPk:sum(packetBytes) 0
attr interpolationmode none
attr title "received packets, sum(packetBytes)"
scalar StarLAN.router.eth[8].queue.dataQueue queueLength:max 10
attr interpolationmode sample-hold
attr title "queue length, max"
scalar StarLAN.router.eth[8].queue.dataQueue queueLength:timeavg 4.707116378959
attr interpolationmode sample-hold
attr title "queue length, timeavg"
statistic StarLAN.router.eth[8].queue.dataQueue queueingTime:histogram
field count 22246
field mean 0.0031736975588343
field stddev 0.0019602128310861
field min 0
field max 0.008115
field sum 70.602075893829
field sqrsum 0.30954458787635
attr interpolationmode none
attr title "queueing time, histogram"
bin	-inf	0
bin	-0.0030250287445	0
bin	-0.0026216915785667	0
bin	-0.0022183544126333	0
bin	-0.0018150172467	0
bin	-0.0014116800807667	0
bin	-0.0010083429148333	0
bin	-0.0006050057489	0
bin	-0.00020166858296667	1473
bin	0.00020166858296667	1061
bin	0.0006050057489	1411
bin	0.0010083429148333	1287
bin	0.0014116800807667	1408
bin	0.0018150172467	1354
bin	0.0022183544126333	1342
bin	0.0026216915785667	1320
bin	0.0030250287445	1412
bin	0.0034283659104333	1338
bin	0.0038317030763667	1371
bin	0.0042350402423	1451
bin	0.0046383774082333	1371
bin	0.0050417145741667	1301
bin	0.0054450517401	1148
bin	0.0058483889060333	939
bin	0.0062517260719667	673
bin	0.0066550632379	384
bin	0.0070584004038333	153
bin	0.0074617375697667	42
bin	0.0078650747357	7
bin	0.0082684119016333	0
bin	0.0086717490675667	0
bin	0.0090750862335	0
scalar StarLAN.router.eth[8].queue.dataQueue dropPk:count 1469
attr interpolationmode none
attr source dropPkByQueue
attr title "dropped packets, count"
scalar StarLAN.router.eth[8].queue.dataQueue dropPk:sum(packetBytes) 997546
attr interpolationmode none
attr source dropPkByQueue
attr title "dropped packets, sum(packetBytes)"
scalar StarLAN.router.eth[8].queue.dataQueue rcvdPk:count 23718
attr interpolationmode none
attr title "received packets, count"
scalar StarLAN.router.eth[8].queue.dataQueue rcvdPk:sum(packetBytes) 18283388
attr interpolationmode none
attr title "received packets, sum(packetBytes)"
scalar StarLAN.router.eth[8].mac "simulated time" 20
scalar StarLAN.router.eth[8].mac full-duplex 1
scalar StarLAN.router.eth[8].mac "frames/sec sent" 1463.55
scalar StarLAN.router.eth[8].mac "frames/sec rcvd" 1561.65
scalar StarLAN.router.eth[8].mac "bits/sec sent" 9077474.4
scalar StarLAN.router.eth[8].mac "bits/sec rcvd" 9684515.6
scalar StarLAN.router.eth[8].mac "rx channel idle (%)" 2.155388
scalar StarLAN.router.eth[8].mac "rx channel utilization (%)" 97.844612
scalar StarLAN.router.eth[8].mac "rx channel collision (%)" 0
scalar StarLAN.router.eth[8].mac collisions 0
scalar StarLAN.router.eth[8].mac backoffs 0
scalar StarLAN.router.eth[8].mac backoff:count 0
attr interpolationmode none
attr title "backoff, count"
scalar StarLAN.router.eth[8].mac collision:count 0
attr interpolationmode none
attr title "collision, count"
scalar StarLAN.router.eth[8].mac rxPkFromHL:count 22246
attr interpolationmode none
attr source rxPkFromHL
attr title "packet bytes from higher layer, count"
scalar StarLAN.router.eth[8].mac rxPkFromHL:sum(packetBytes) 17282231
attr interpolationmode none
attr source rxPkFromHL
attr title "packet bytes from higher layer, sum(packetBytes)"
scalar StarLAN.router.eth[8].mac rxPausePkUnits:count 0
attr interpolationmode none
attr title "pause units received, count"
scalar StarLAN.router.eth[8].mac rxPausePkUnits:sum 0
attr interpolationmode none
attr title "pause units received, sum"
scalar StarLAN.router.eth[8].mac txPausePkUnits:count 0
attr interpolationmode none
attr title "pause units sent, count"
scalar StarLAN.router.eth[8].mac txPausePkUnits:sum 0
attr interpolationmode none
attr title "pause units sent, sum"
scalar StarLAN.router.eth[8].mac txPk:count 22246
attr interpolationmode none
attr source txPk
attr title "packets transmitted, count"
scalar StarLAN.router.eth[8].mac txPk:sum(packetBytes) 17282471
attr interpolationmode none
attr source txPk
attr title "packets transmitted, sum(packetBytes)"
scalar StarLAN.router.eth[8].mac droppedPkNotForUs:count 0
attr interpolationmode none
attr source dropPkNotForUs
attr title "packets dropped/not for us, count"
scalar StarLAN.router.eth[8].mac droppedPkNotForUs:sum(packetBytes) 0
attr interpolationmode none
attr source dropPkNotForUs
attr title "packets dropped/not for us, sum(packetBytes)"
scalar StarLAN.router.eth[8].mac droppedPkBitError:count 0
attr interpolationmode none
attr source dropPkBitError
attr title "packets dropped/bit error, count"
scalar StarLAN.router.eth[8].mac droppedPkBitError:sum(packetBytes) 0
attr interpolationmode none
attr source dropPkBitError
attr title "packets dropped/bit error, sum(packetBytes)"
scalar StarLAN.router.eth[8].mac droppedPkIfaceDown:count 0
attr interpolationmode none
attr source dropPkIfaceDown
attr title "packets dropped/interface down, count"
scalar StarLAN.router.eth[8].mac droppedPkIfaceDown:sum(packetBytes) 0
attr interpolationmode none
attr source dropPkIfaceDown
attr title "packets dropped/interface down, sum(packetBytes)"
scalar StarLAN.router.eth[8].mac rxPkOk:count 23543
attr interpolationmode none
attr source rxPkOk
attr title "packets received OK, count"
scalar StarLAN.router.eth[8].mac rxPkOk:sum(packetBytes) 18268315
attr interpolationmode none
attr source rxPkOk
attr title "packets received OK, sum(packetBytes)"
scalar StarLAN.router.eth[8].mac passedUpPk:count 23543
attr interpolationmode none
attr source packetSentToUpper
attr title "packets passed to higher layer, count"
scalar StarLAN.router.eth[8].mac passedUpPk:sum(packetBytes) 18268315
attr interpolationmode none
attr source packetSentToUpper
attr title "packets passed to higher layer, sum(packetBytes)"
scalar StarLAN.router.eth[9].queue.pauseQueue queueLength:max nan
attr interpolationmode sample-hold
attr title "queue length, max"
scalar StarLAN.router.eth[9].queue.pauseQueue queueLength:timeavg nan
attr interpolationmode sample-hold
attr title "queue length, timeavg"
statistic StarLAN.router.eth[9].queue.pauseQueue queueingTime:histogram
field count 0
field mean nan
field stddev nan
field min nan
field max nan
field sum 0
field sqrsum 0
attr interpolationmode none
attr title "queueing time, histogram"
bin	-inf	0
bin	-0.5	0
bin	-0.46666666666667	0
bin	-0.43333333333333	0
bin	-0.4	0
bin	-0.36666666666667	0
bin	-0.33333333333333	0
bin	-0.3	0
bin	-0.26666666666667	0
bin	-0.23333333333333	0
bin	-0.2	0
bin	-0.16666666666667	0
bin	-0.13333333333333	0
bin	-0.1	0
bin	-0.066666666666667	0
bin	-0.033333333333333	0
bin	0	0
bin	0.033333333333333	0
bin	0.066666666666667	0
bin	0.1	0
bin	0.13333333333333	0
bin	0.16666666666667	0
bin	0.2	0
bin	0.23333333333333	0
bin	0.26666666666667	0
bin	0.3	0
bin	0.33333333333333	0
bin	0.36666666666667	0
bin	0.4	0
bin	0.43333333333333	0
bin	0.46666666666667	0
bin	0.5	0
scalar StarLAN.router.eth[9].queue.pauseQueue dropPk:count 0
attr interpolationmode none
attr source dropPkByQueue
attr title "dropped packets, count"
scalar StarLAN.router.eth[9].queue.pauseQueue dropPk:sum(packetBytes) 0
attr interpolationmode none
attr source dropPkByQueue
attr title "dropped packets, sum(packetBytes)"
scalar StarLAN.router.eth[9].queue.pauseQueue rcvdPk:count 0
attr interpolationmode none
attr title "received packets, count"
scalar StarLAN.router.eth[9].queue.pauseQueue rcvdPk:sum(packetBytes) 0
attr interpolationmode none
attr title "received packets, sum(packetBytes)"
scalar StarLAN.router.eth[9].queue.dataQueue queueLength:max 10
attr interpolationmode sample-hold
attr title "queue length, max"
scalar StarLAN.router.eth[9].queue.dataQueue queueLength:timeavg 4.9092092663303
attr interpolationmode sample-hold
attr title "queue length, timeavg"
statistic StarLAN.router.eth[9].queue.dataQueue queueingTime:histogram
field count 22417
field mean 0.0032848196897818
field stddev 0.0019763802120543
field min 0
field max 0.007889345499
field sum 73.635802985839
field sqrsum 0.32943899661489
attr interpolationmode none
attr title "queueing time, histogram"
bin	-inf	0
bin	-0.002221563157	0
bin	-0.0019253547360667	0
bin	-0.0016291463151333	0
bin	-0.0013329378942	0
bin	-0.0010367294732667	0
bin	-0.00074052105233333	0
bin	-0.0004443126314	0
bin	-0.00014810421046667	1203
bin	0.00014810421046667	635
bin	0.0004443126314	956
bin	0.00074052105233333	918
bin	0.0010367294732667	955
bin	0.0013329378942	992
bin	0.0016291463151333	1013
bin	0.0019253547360667	1032
bin	0.002221563157	989
bin	0.0025177715779333	1006
bin	0.0028139799988667	969
bin	0.0031101884198	986
bin	0.0034063968407333	994
bin	0.0037026052616667	965
bin	0.0039988136826	986
bin	0.0042950221035333	1008
bin	0.0045912305244667	969
bin	0.0048874389454	1006
bin	0.0051836473663333	1043
bin	0.0054798557872667	1012
bin	0.0057760642082	866
bin	0.0060722726291333	744
bin	0.0063684810500667	573
bin	0.006664689471	597
scalar StarLAN.router.eth[9].queue.dataQueue dropPk:count 1637
attr interpolationmode none
attr source dropPkByQueue
attr title "dropped packets, count"
scalar StarLAN.router.eth[9].queue.dataQueue dropPk:sum(packetBytes) 1086404
attr interpolationmode none
attr source dropPkByQueue
attr title "dropped packets, sum(packetBytes)"
scalar StarLAN.router.eth[9].queue.dataQueue rcvdPk:count 24055
attr interpolationmode none
attr title "received packets, count"
scalar StarLAN.router.eth[9].queue.dataQueue rcvdPk:sum(packetBytes) 18480911
attr interpolationmode none
attr title "received packets, sum(packetBytes)"
scalar StarLAN.router.eth[9].mac "simulated time" 20
scalar StarLAN.router.eth[9].mac full-duplex 1
scalar StarLAN.router.eth[9].mac "frames/sec sent" 1482.8
scalar StarLAN.router.eth[9].mac "frames/sec rcvd" 1585.9
scalar StarLAN.router.eth[9].mac "bits/sec sent" 9194802
scalar StarLAN.router.eth[9].mac "bits/sec rcvd" 9685071.2
scalar StarLAN.router.eth[9].mac "rx channel idle (%)" 2.134312
scalar StarLAN.router.eth[9].mac "rx channel utilization (%)" 97.865688
scalar StarLAN.router.eth[9].mac "rx channel collision (%)" 0
scalar StarLAN.router.eth[9].mac collisions 0
scalar StarLAN.router.eth[9].mac backoffs 0
scalar StarLAN.router.eth[9].mac backoff:count 0
attr interpolationmode none
attr title "backoff, count"
scalar StarLAN.router.eth[9].mac collision:count 0
attr interpolationmode none
attr title "collision, count"
scalar StarLAN.router.eth[9].mac rxPkFromHL:count 22417
attr interpolationmode none
attr source rxPkFromHL
attr title "packet bytes from higher layer, count"
scalar StarLAN.router.eth[9].mac rxPkFromHL:sum(packetBytes) 17393469
attr interpolationmode none
attr source rxPkFromHL
attr title "packet bytes from higher layer, sum(packetBytes)"
scalar StarLAN.router.eth[9].mac rxPausePkUnits:count 0
attr interpolationmode none
attr title "pause units received, count"
scalar StarLAN.router.eth[9].mac rxPausePkUnits:sum 0
attr interpolationmode none
attr title "pause units received, sum"
scalar StarLAN.router.eth[9].mac txPausePkUnits:count 0
attr interpolationmode none
attr title "pause units sent, count"
scalar StarLAN.router.eth[9].mac txPausePkUnits:sum 0
attr interpolationmode none
attr title "pause units sent, sum"
scalar StarLAN.router.eth[9].mac txPk:count 22417
attr interpolationmode none
attr source txPk
attr title "packets transmitted, count"
scalar StarLAN.router.eth[9].mac txPk:sum(packetBytes) 17392842
attr interpolationmode none
attr source txPk
attr title "packets transmitted, sum(packetBytes)"
scalar StarLAN.router.eth[9].mac droppedPkNotForUs:count 0
attr interpolationmode none
attr source dropPkNotForUs
attr title "packets dropped/not for us, count"
scalar StarLAN.router.eth[9].mac droppedPkNotForUs:sum(packetBytes) 0
attr interpolationmode none
attr source dropPkNotForUs
attr title "packets dropped/not for us, sum(packetBytes)"
scalar StarLAN.router.eth[9].mac droppedPkBitError:count 0
attr interpolationmode none
attr source dropPkBitError
attr title "packets dropped/bit error, count"
scalar StarLAN.router.eth[9].mac droppedPkBitError:sum(packetBytes) 0
attr interpolationmode none
attr source dropPkBitError
attr title "packets dropped/bit error, sum(packetBytes)"
scalar StarLAN.router.eth[9].mac droppedPkIfaceDown:count 0
attr interpolationmode none
attr source dropPkIfaceDown
attr title "packets dropped/interface down, count"
scalar StarLAN.router.eth[9].mac droppedPkIfaceDown:sum(packetBytes) 0
attr interpolationmode none
attr source dropPkIfaceDown
attr title "packets dropped/interface down, sum(packetBytes)"
scalar StarLAN.router.eth[9].mac rxPkOk:count 23898
attr interpolationmode none
attr source rxPkOk
attr title "packets received OK, count"
scalar StarLAN.router.eth[9].mac rxPkOk:sum(packetBytes) 18258345
attr interpolationmode none
attr source rxPkOk
attr title "packets received OK, sum(packetBytes)"
scalar StarLAN.router.eth[9].mac passedUpPk:count 23898
attr interpolationmode none
attr source packetSentToUpper
attr title "packets passed to higher layer, count"
scalar StarLAN.router.eth[9].mac passedUpPk:sum(packetBytes) 18258345
attr interpolationmode none
attr source packetSentToUpper
attr title "packets passed to higher layer, sum(packetBytes)"

