version 2
run StarLAN10-base-2-20180110-19:16:59-13604
attr configname StarLAN10-base
attr datetime 20180110-19:16:59
attr experiment StarLAN10-base
attr inifile StarLAN.ini
attr iterationvars $pa=128
attr iterationvarsf pa=128-
attr measurement $pa=128
attr network StarLAN
attr processid 13604
attr repetition 0
attr replication #0
attr resultdir results
attr runnumber 2
attr seedset 2
itervar pa 128
param *.numHosts 10
param **.datarate 10Mbps
param **.host[*].pingApp[*].sendInterval "truncnormal(50ms, 25ms)"
param **.host[*].pingApp[*].packetSize "truncnormal(1024B, 512B)"
param **.queueType "\"DropTailQueue\""
param **.frameCapacity 10
param **.mtu 1024B
param **.host[*].numPingApps 128
param **.host[*].pingApp[*].typename "\"PingApp\""
param **.host[*].pingApp[*].count 1
param **.host[*].pingApp[*].startTime "truncnormal(200ms, 100ms)"
param **.host[*].pingApp[*].destAddr "\"*\""

scalar StarLAN.host[0].networkLayer.arp sentReply:count 0
attr title "ARP replies sent, count"
scalar StarLAN.host[0].networkLayer.arp sentReq:count 0
attr title "ARP request sent, count"
scalar StarLAN.host[0].networkLayer.arp failedARPResolution:count 0
attr title "ARP failed resolutions, count"
scalar StarLAN.host[0].networkLayer.arp completedARPResolution:count 0
attr title "ARP completed resolutions, count"
scalar StarLAN.host[0].networkLayer.arp initiatedARPResolution:count 0
attr title "ARP initiated resolutions, count"
scalar StarLAN.host[0].lo0.lo droppedPkBitError:count 0
attr interpolationmode none
attr source dropPkBitError
attr title "packets dropped/bit error, count"
scalar StarLAN.host[0].lo0.lo droppedPkBitError:sum(packetBytes) 0
attr interpolationmode none
attr source dropPkBitError
attr title "packets dropped/bit error, sum(packetBytes)"
scalar StarLAN.host[0].lo0.lo rcvdPkFromHL:count 11590
attr interpolationmode none
attr source packetReceivedFromUpper
attr title "packets received from higher layer, count"
scalar StarLAN.host[0].lo0.lo rcvdPkFromHL:sum(packetBytes) 7936726
attr interpolationmode none
attr source packetReceivedFromUpper
attr title "packets received from higher layer, sum(packetBytes)"
scalar StarLAN.host[0].lo0.lo passedUpPk:count 11590
attr interpolationmode none
attr source packetSentToUpper
attr title "packets passed to higher layer, count"
scalar StarLAN.host[0].lo0.lo passedUpPk:sum(packetBytes) 7936726
attr interpolationmode none
attr source packetSentToUpper
attr title "packets passed to higher layer, sum(packetBytes)"
scalar StarLAN.host[0].eth[0].queue.pauseQueue queueLength:max nan
attr interpolationmode sample-hold
attr title "queue length, max"
scalar StarLAN.host[0].eth[0].queue.pauseQueue queueLength:timeavg nan
attr interpolationmode sample-hold
attr title "queue length, timeavg"
statistic StarLAN.host[0].eth[0].queue.pauseQueue queueingTime:histogram
field count 0
field mean nan
field stddev nan
field min nan
field max nan
field sum 0
field sqrsum 0
attr interpolationmode none
attr title "queueing time, histogram"
bin	-inf	0
bin	-0.5	0
bin	-0.46666666666667	0
bin	-0.43333333333333	0
bin	-0.4	0
bin	-0.36666666666667	0
bin	-0.33333333333333	0
bin	-0.3	0
bin	-0.26666666666667	0
bin	-0.23333333333333	0
bin	-0.2	0
bin	-0.16666666666667	0
bin	-0.13333333333333	0
bin	-0.1	0
bin	-0.066666666666667	0
bin	-0.033333333333333	0
bin	0	0
bin	0.033333333333333	0
bin	0.066666666666667	0
bin	0.1	0
bin	0.13333333333333	0
bin	0.16666666666667	0
bin	0.2	0
bin	0.23333333333333	0
bin	0.26666666666667	0
bin	0.3	0
bin	0.33333333333333	0
bin	0.36666666666667	0
bin	0.4	0
bin	0.43333333333333	0
bin	0.46666666666667	0
bin	0.5	0
scalar StarLAN.host[0].eth[0].queue.pauseQueue dropPk:count 0
attr interpolationmode none
attr source dropPkByQueue
attr title "dropped packets, count"
scalar StarLAN.host[0].eth[0].queue.pauseQueue dropPk:sum(packetBytes) 0
attr interpolationmode none
attr source dropPkByQueue
attr title "dropped packets, sum(packetBytes)"
scalar StarLAN.host[0].eth[0].queue.pauseQueue rcvdPk:count 0
attr interpolationmode none
attr title "received packets, count"
scalar StarLAN.host[0].eth[0].queue.pauseQueue rcvdPk:sum(packetBytes) 0
attr interpolationmode none
attr title "received packets, sum(packetBytes)"
scalar StarLAN.host[0].eth[0].queue.dataQueue queueLength:max 10
attr interpolationmode sample-hold
attr title "queue length, max"
scalar StarLAN.host[0].eth[0].queue.dataQueue queueLength:timeavg 9.3852667328833
attr interpolationmode sample-hold
attr title "queue length, timeavg"
statistic StarLAN.host[0].eth[0].queue.dataQueue queueingTime:histogram
field count 22824
field mean 0.0061689075437761
field stddev 0.00076711766590126
field min 0.002292358137
field max 0.008400016074
field sum 140.79914577915
field sqrsum 0.88200755225711
attr interpolationmode none
attr title "queueing time, histogram"
bin	-inf	22
bin	0.003248743046	14
bin	0.0034322931237333	20
bin	0.0036158432014667	31
bin	0.0037993932792	42
bin	0.0039829433569333	98
bin	0.0041664934346667	130
bin	0.0043500435124	206
bin	0.0045335935901333	289
bin	0.0047171436678667	459
bin	0.0049006937456	619
bin	0.0050842438233333	822
bin	0.0052677939010667	1135
bin	0.0054513439788	1420
bin	0.0056348940565333	1682
bin	0.0058184441342667	1981
bin	0.006001994212	2128
bin	0.0061855442897333	2169
bin	0.0063690943674667	2150
bin	0.0065526444452	2027
bin	0.0067361945229333	1622
bin	0.0069197446006667	1341
bin	0.0071032946784	1020
bin	0.0072868447561333	679
bin	0.0074703948338667	392
bin	0.0076539449116	182
bin	0.0078374949893333	95
bin	0.0080210450670667	37
bin	0.0082045951448	11
bin	0.0083881452225333	1
bin	0.0085716953002667	0
bin	0.008755245378	0
scalar StarLAN.host[0].eth[0].queue.dataQueue dropPk:count 39910
attr interpolationmode none
attr source dropPkByQueue
attr title "dropped packets, count"
scalar StarLAN.host[0].eth[0].queue.dataQueue dropPk:sum(packetBytes) 25925253
attr interpolationmode none
attr source dropPkByQueue
attr title "dropped packets, sum(packetBytes)"
scalar StarLAN.host[0].eth[0].queue.dataQueue rcvdPk:count 62732
attr interpolationmode none
attr title "received packets, count"
scalar StarLAN.host[0].eth[0].queue.dataQueue rcvdPk:sum(packetBytes) 44218329
attr interpolationmode none
attr title "received packets, sum(packetBytes)"
scalar StarLAN.host[0].eth[0].mac "simulated time" 20
scalar StarLAN.host[0].eth[0].mac full-duplex 1
scalar StarLAN.host[0].eth[0].mac "frames/sec sent" 1520.2
scalar StarLAN.host[0].eth[0].mac "frames/sec rcvd" 1421.7
scalar StarLAN.host[0].eth[0].mac "bits/sec sent" 9718993.2
scalar StarLAN.host[0].eth[0].mac "bits/sec rcvd" 9273040.8
scalar StarLAN.host[0].eth[0].mac "rx channel idle (%)" 6.359704
scalar StarLAN.host[0].eth[0].mac "rx channel utilization (%)" 93.640296
scalar StarLAN.host[0].eth[0].mac rxPkFromHL:count 22824
attr interpolationmode none
attr source rxPkFromHL
attr title "packet bytes from higher layer, count"
scalar StarLAN.host[0].eth[0].mac rxPkFromHL:sum(packetBytes) 18294215
attr interpolationmode none
attr source rxPkFromHL
attr title "packet bytes from higher layer, sum(packetBytes)"
scalar StarLAN.host[0].eth[0].mac rxPausePkUnits:count 0
attr interpolationmode none
attr title "pause units received, count"
scalar StarLAN.host[0].eth[0].mac rxPausePkUnits:sum 0
attr interpolationmode none
attr title "pause units received, sum"
scalar StarLAN.host[0].eth[0].mac txPausePkUnits:count 0
attr interpolationmode none
attr title "pause units sent, count"
scalar StarLAN.host[0].eth[0].mac txPausePkUnits:sum 0
attr interpolationmode none
attr title "pause units sent, sum"
scalar StarLAN.host[0].eth[0].mac txPk:count 22824
attr interpolationmode none
attr source txPk
attr title "packets transmitted, count"
scalar StarLAN.host[0].eth[0].mac txPk:sum(packetBytes) 18294215
attr interpolationmode none
attr source txPk
attr title "packets transmitted, sum(packetBytes)"
scalar StarLAN.host[0].eth[0].mac droppedPkNotForUs:count 0
attr interpolationmode none
attr source dropPkNotForUs
attr title "packets dropped/not for us, count"
scalar StarLAN.host[0].eth[0].mac droppedPkNotForUs:sum(packetBytes) 0
attr interpolationmode none
attr source dropPkNotForUs
attr title "packets dropped/not for us, sum(packetBytes)"
scalar StarLAN.host[0].eth[0].mac droppedPkBitError:count 0
attr interpolationmode none
attr source dropPkBitError
attr title "packets dropped/bit error, count"
scalar StarLAN.host[0].eth[0].mac droppedPkBitError:sum(packetBytes) 0
attr interpolationmode none
attr source dropPkBitError
attr title "packets dropped/bit error, sum(packetBytes)"
scalar StarLAN.host[0].eth[0].mac droppedPkIfaceDown:count 0
attr interpolationmode none
attr source dropPkIfaceDown
attr title "packets dropped/interface down, count"
scalar StarLAN.host[0].eth[0].mac droppedPkIfaceDown:sum(packetBytes) 0
attr interpolationmode none
attr source dropPkIfaceDown
attr title "packets dropped/interface down, sum(packetBytes)"
scalar StarLAN.host[0].eth[0].mac rxPkOk:count 21242
attr interpolationmode none
attr source rxPkOk
attr title "packets received OK, count"
scalar StarLAN.host[0].eth[0].mac rxPkOk:sum(packetBytes) 17341756
attr interpolationmode none
attr source rxPkOk
attr title "packets received OK, sum(packetBytes)"
scalar StarLAN.host[0].eth[0].mac passedUpPk:count 21242
attr interpolationmode none
attr source packetSentToUpper
attr title "packets passed to higher layer, count"
scalar StarLAN.host[0].eth[0].mac passedUpPk:sum(packetBytes) 17341756
attr interpolationmode none
attr source packetSentToUpper
attr title "packets passed to higher layer, sum(packetBytes)"
scalar StarLAN.host[0].eth[0].encap pauseSent:count 0
attr title "pause sent, count"
scalar StarLAN.host[0].eth[0].encap pauseSent:sum 0
attr title "pause sent, sum"
scalar StarLAN.host[0].eth[0].encap decapPk:count 21242
attr interpolationmode none
attr source decapPk
attr title "packets decapsulated, count"
scalar StarLAN.host[0].eth[0].encap decapPk:sum(packetBytes) 16958166
attr interpolationmode none
attr source decapPk
attr title "packets decapsulated, sum(packetBytes)"
scalar StarLAN.host[0].eth[0].encap encapPk:count 62732
attr interpolationmode none
attr source encapPk
attr title "packets encapsulated, count"
scalar StarLAN.host[0].eth[0].encap encapPk:sum(packetBytes) 43074485
attr interpolationmode none
attr source encapPk
attr title "packets encapsulated, sum(packetBytes)"
scalar StarLAN.host[0].pingApp[0] "Pings sent" 397
scalar StarLAN.host[0].pingApp[0] "ping loss rate (%)" 87.909319899244
scalar StarLAN.host[0].pingApp[0] "ping out-of-order rate (%)" 0
scalar StarLAN.host[0].pingApp[0] pingRxSeq:count 36
attr interpolationmode none
attr title "ping rx seq, count"
scalar StarLAN.host[0].pingApp[0] pingTxSeq:count 303
attr interpolationmode none
attr title "ping tx seq, count"
scalar StarLAN.host[0].pingApp[0] numOutOfOrderArrivals:last nan
attr interpolationmode none
attr title "ping out-of-order arrivals, last"
scalar StarLAN.host[0].pingApp[0] numLost:last 347
attr interpolationmode none
attr title "pings lost, last"
scalar StarLAN.host[0].pingApp[0] rtt:mean 0.018485367936
attr interpolationmode none
attr title "ping round-trip time, mean"
attr unit s
scalar StarLAN.host[0].pingApp[1] "Pings sent" 384
scalar StarLAN.host[0].pingApp[1] "ping loss rate (%)" 86.71875
scalar StarLAN.host[0].pingApp[1] "ping out-of-order rate (%)" 0
scalar StarLAN.host[0].pingApp[1] pingRxSeq:count 36
attr interpolationmode none
attr title "ping rx seq, count"
scalar StarLAN.host[0].pingApp[1] pingTxSeq:count 289
attr interpolationmode none
attr title "ping tx seq, count"
scalar StarLAN.host[0].pingApp[1] numOutOfOrderArrivals:last nan
attr interpolationmode none
attr title "ping out-of-order arrivals, last"
scalar StarLAN.host[0].pingApp[1] numLost:last 332
attr interpolationmode none
attr title "pings lost, last"
scalar StarLAN.host[0].pingApp[1] rtt:mean 0.021380885741333
attr interpolationmode none
attr title "ping round-trip time, mean"
attr unit s
scalar StarLAN.host[0].pingApp[2] "Pings sent" 377
scalar StarLAN.host[0].pingApp[2] "ping loss rate (%)" 67.90450928382
scalar StarLAN.host[0].pingApp[2] "ping out-of-order rate (%)" 0
scalar StarLAN.host[0].pingApp[2] pingRxSeq:count 88
attr interpolationmode none
attr title "ping rx seq, count"
scalar StarLAN.host[0].pingApp[2] pingTxSeq:count 288
attr interpolationmode none
attr title "ping tx seq, count"
scalar StarLAN.host[0].pingApp[2] numOutOfOrderArrivals:last nan
attr interpolationmode none
attr title "ping out-of-order arrivals, last"
scalar StarLAN.host[0].pingApp[2] numLost:last 251
attr interpolationmode none
attr title "pings lost, last"
scalar StarLAN.host[0].pingApp[2] rtt:mean 0.02208566121377
attr interpolationmode none
attr title "ping round-trip time, mean"
attr unit s
scalar StarLAN.host[0].pingApp[3] "Pings sent" 360
scalar StarLAN.host[0].pingApp[3] "ping loss rate (%)" 70.277777777778
scalar StarLAN.host[0].pingApp[3] "ping out-of-order rate (%)" 0.55555555555556
scalar StarLAN.host[0].pingApp[3] pingRxSeq:count 83
attr interpolationmode none
attr title "ping rx seq, count"
scalar StarLAN.host[0].pingApp[3] pingTxSeq:count 273
attr interpolationmode none
attr title "ping tx seq, count"
scalar StarLAN.host[0].pingApp[3] numOutOfOrderArrivals:last 2
attr interpolationmode none
attr title "ping out-of-order arrivals, last"
scalar StarLAN.host[0].pingApp[3] numLost:last 253
attr interpolationmode none
attr title "pings lost, last"
scalar StarLAN.host[0].pingApp[3] rtt:mean 0.02187025603471
attr interpolationmode none
attr title "ping round-trip time, mean"
attr unit s
scalar StarLAN.host[0].pingApp[4] "Pings sent" 395
scalar StarLAN.host[0].pingApp[4] "ping loss rate (%)" 71.898734177215
scalar StarLAN.host[0].pingApp[4] "ping out-of-order rate (%)" 0
scalar StarLAN.host[0].pingApp[4] pingRxSeq:count 79
attr interpolationmode none
attr title "ping rx seq, count"
scalar StarLAN.host[0].pingApp[4] pingTxSeq:count 302
attr interpolationmode none
attr title "ping tx seq, count"
scalar StarLAN.host[0].pingApp[4] numOutOfOrderArrivals:last nan
attr interpolationmode none
attr title "ping out-of-order arrivals, last"
scalar StarLAN.host[0].pingApp[4] numLost:last 281
attr interpolationmode none
attr title "pings lost, last"
scalar StarLAN.host[0].pingApp[4] rtt:mean 0.020819747886667
attr interpolationmode none
attr title "ping round-trip time, mean"
attr unit s
scalar StarLAN.host[0].pingApp[5] "Pings sent" 394
scalar StarLAN.host[0].pingApp[5] "ping loss rate (%)" 87.055837563452
scalar StarLAN.host[0].pingApp[5] "ping out-of-order rate (%)" 0
scalar StarLAN.host[0].pingApp[5] pingRxSeq:count 38
attr interpolationmode none
attr title "ping rx seq, count"
scalar StarLAN.host[0].pingApp[5] pingTxSeq:count 294
attr interpolationmode none
attr title "ping tx seq, count"
scalar StarLAN.host[0].pingApp[5] numOutOfOrderArrivals:last nan
attr interpolationmode none
attr title "ping out-of-order arrivals, last"
scalar StarLAN.host[0].pingApp[5] numLost:last 340
attr interpolationmode none
attr title "pings lost, last"
scalar StarLAN.host[0].pingApp[5] rtt:mean 0.0218143341836
attr interpolationmode none
attr title "ping round-trip time, mean"
attr unit s
scalar StarLAN.host[0].pingApp[6] "Pings sent" 384
scalar StarLAN.host[0].pingApp[6] "ping loss rate (%)" 65.885416666667
scalar StarLAN.host[0].pingApp[6] "ping out-of-order rate (%)" 0
scalar StarLAN.host[0].pingApp[6] pingRxSeq:count 94
attr interpolationmode none
attr title "ping rx seq, count"
scalar StarLAN.host[0].pingApp[6] pingTxSeq:count 291
attr interpolationmode none
attr title "ping tx seq, count"
scalar StarLAN.host[0].pingApp[6] numOutOfOrderArrivals:last nan
attr interpolationmode none
attr title "ping out-of-order arrivals, last"
scalar StarLAN.host[0].pingApp[6] numLost:last 253
attr interpolationmode none
attr title "pings lost, last"
scalar StarLAN.host[0].pingApp[6] rtt:mean 0.022162516835768
attr interpolationmode none
attr title "ping round-trip time, mean"
attr unit s
scalar StarLAN.host[0].pingApp[7] "Pings sent" 405
scalar StarLAN.host[0].pingApp[7] "ping loss rate (%)" 70.617283950617
scalar StarLAN.host[0].pingApp[7] "ping out-of-order rate (%)" 0.24691358024691
scalar StarLAN.host[0].pingApp[7] pingRxSeq:count 93
attr interpolationmode none
attr title "ping rx seq, count"
scalar StarLAN.host[0].pingApp[7] pingTxSeq:count 306
attr interpolationmode none
attr title "ping tx seq, count"
scalar StarLAN.host[0].pingApp[7] numOutOfOrderArrivals:last 1
attr interpolationmode none
attr title "ping out-of-order arrivals, last"
scalar StarLAN.host[0].pingApp[7] numLost:last 285
attr interpolationmode none
attr title "pings lost, last"
scalar StarLAN.host[0].pingApp[7] rtt:mean 0.022146831295508
attr interpolationmode none
attr title "ping round-trip time, mean"
attr unit s
scalar StarLAN.host[0].pingApp[8] "Pings sent" 404
scalar StarLAN.host[0].pingApp[8] "ping loss rate (%)" 74.752475247525
scalar StarLAN.host[0].pingApp[8] "ping out-of-order rate (%)" 0
scalar StarLAN.host[0].pingApp[8] pingRxSeq:count 74
attr interpolationmode none
attr title "ping rx seq, count"
scalar StarLAN.host[0].pingApp[8] pingTxSeq:count 303
attr interpolationmode none
attr title "ping tx seq, count"
scalar StarLAN.host[0].pingApp[8] numOutOfOrderArrivals:last nan
attr interpolationmode none
attr title "ping out-of-order arrivals, last"
scalar StarLAN.host[0].pingApp[8] numLost:last 301
attr interpolationmode none
attr title "pings lost, last"
scalar StarLAN.host[0].pingApp[8] rtt:mean 0.019720098088723
attr interpolationmode none
attr title "ping round-trip time, mean"
attr unit s
scalar StarLAN.host[0].pingApp[9] "Pings sent" 394
scalar StarLAN.host[0].pingApp[9] "ping loss rate (%)" 89.593908629442
scalar StarLAN.host[0].pingApp[9] "ping out-of-order rate (%)" 0
scalar StarLAN.host[0].pingApp[9] pingRxSeq:count 31
attr interpolationmode none
attr title "ping rx seq, count"
scalar StarLAN.host[0].pingApp[9] pingTxSeq:count 298
attr interpolationmode none
attr title "ping tx seq, count"
scalar StarLAN.host[0].pingApp[9] numOutOfOrderArrivals:last nan
attr interpolationmode none
attr title "ping out-of-order arrivals, last"
scalar StarLAN.host[0].pingApp[9] numLost:last 342
attr interpolationmode none
attr title "pings lost, last"
scalar StarLAN.host[0].pingApp[9] rtt:mean 0.0214297626464
attr interpolationmode none
attr title "ping round-trip time, mean"
attr unit s
scalar StarLAN.host[0].pingApp[10] "Pings sent" 375
scalar StarLAN.host[0].pingApp[10] "ping loss rate (%)" 72.533333333333
scalar StarLAN.host[0].pingApp[10] "ping out-of-order rate (%)" 0
scalar StarLAN.host[0].pingApp[10] pingRxSeq:count 79
attr interpolationmode none
attr title "ping rx seq, count"
scalar StarLAN.host[0].pingApp[10] pingTxSeq:count 279
attr interpolationmode none
attr title "ping tx seq, count"
scalar StarLAN.host[0].pingApp[10] numOutOfOrderArrivals:last nan
attr interpolationmode none
attr title "ping out-of-order arrivals, last"
scalar StarLAN.host[0].pingApp[10] numLost:last 271
attr interpolationmode none
attr title "pings lost, last"
scalar StarLAN.host[0].pingApp[10] rtt:mean 0.021670429419722
attr interpolationmode none
attr title "ping round-trip time, mean"
attr unit s
scalar StarLAN.host[0].pingApp[11] "Pings sent" 382
scalar StarLAN.host[0].pingApp[11] "ping loss rate (%)" 88.48167539267
scalar StarLAN.host[0].pingApp[11] "ping out-of-order rate (%)" 0
scalar StarLAN.host[0].pingApp[11] pingRxSeq:count 32
attr interpolationmode none
attr title "ping rx seq, count"
scalar StarLAN.host[0].pingApp[11] pingTxSeq:count 292
attr interpolationmode none
attr title "ping tx seq, count"
scalar StarLAN.host[0].pingApp[11] numOutOfOrderArrivals:last nan
attr interpolationmode none
attr title "ping out-of-order arrivals, last"
scalar StarLAN.host[0].pingApp[11] numLost:last 327
attr interpolationmode none
attr title "pings lost, last"
scalar StarLAN.host[0].pingApp[11] rtt:mean 0.02227234911325
attr interpolationmode none
attr title "ping round-trip time, mean"
attr unit s
scalar StarLAN.host[0].pingApp[12] "Pings sent" 381
scalar StarLAN.host[0].pingApp[12] "ping loss rate (%)" 70.603674540682
scalar StarLAN.host[0].pingApp[12] "ping out-of-order rate (%)" 0.26246719160105
scalar StarLAN.host[0].pingApp[12] pingRxSeq:count 88
attr interpolationmode none
attr title "ping rx seq, count"
scalar StarLAN.host[0].pingApp[12] pingTxSeq:count 292
attr interpolationmode none
attr title "ping tx seq, count"
scalar StarLAN.host[0].pingApp[12] numOutOfOrderArrivals:last 1
attr interpolationmode none
attr title "ping out-of-order arrivals, last"
scalar StarLAN.host[0].pingApp[12] numLost:last 267
attr interpolationmode none
attr title "pings lost, last"
scalar StarLAN.host[0].pingApp[12] rtt:mean 0.021309475800566
attr interpolationmode none
attr title "ping round-trip time, mean"
attr unit s
scalar StarLAN.host[0].pingApp[13] "Pings sent" 388
scalar StarLAN.host[0].pingApp[13] "ping loss rate (%)" 88.40206185567
scalar StarLAN.host[0].pingApp[13] "ping out-of-order rate (%)" 0
scalar StarLAN.host[0].pingApp[13] pingRxSeq:count 33
attr interpolationmode none
attr title "ping rx seq, count"
scalar StarLAN.host[0].pingApp[13] pingTxSeq:count 292
attr interpolationmode none
attr title "ping tx seq, count"
scalar StarLAN.host[0].pingApp[13] numOutOfOrderArrivals:last nan
attr interpolationmode none
attr title "ping out-of-order arrivals, last"
scalar StarLAN.host[0].pingApp[13] numLost:last 331
attr interpolationmode none
attr title "pings lost, last"
scalar StarLAN.host[0].pingApp[13] rtt:mean 0.023606006822
attr interpolationmode none
attr title "ping round-trip time, mean"
attr unit s
scalar StarLAN.host[0].pingApp[14] "Pings sent" 388
scalar StarLAN.host[0].pingApp[14] "ping loss rate (%)" 69.587628865979
scalar StarLAN.host[0].pingApp[14] "ping out-of-order rate (%)" 0
scalar StarLAN.host[0].pingApp[14] pingRxSeq:count 88
attr interpolationmode none
attr title "ping rx seq, count"
scalar StarLAN.host[0].pingApp[14] pingTxSeq:count 287
attr interpolationmode none
attr title "ping tx seq, count"
scalar StarLAN.host[0].pingApp[14] numOutOfOrderArrivals:last nan
attr interpolationmode none
attr title "ping out-of-order arrivals, last"
scalar StarLAN.host[0].pingApp[14] numLost:last 270
attr interpolationmode none
attr title "pings lost, last"
scalar StarLAN.host[0].pingApp[14] rtt:mean 0.02118042555331
attr interpolationmode none
attr title "ping round-trip time, mean"
attr unit s
scalar StarLAN.host[0].pingApp[15] "Pings sent" 389
scalar StarLAN.host[0].pingApp[15] "ping loss rate (%)" 68.123393316195
scalar StarLAN.host[0].pingApp[15] "ping out-of-order rate (%)" 0
scalar StarLAN.host[0].pingApp[15] pingRxSeq:count 83
attr interpolationmode none
attr title "ping rx seq, count"
scalar StarLAN.host[0].pingApp[15] pingTxSeq:count 287
attr interpolationmode none
attr title "ping tx seq, count"
scalar StarLAN.host[0].pingApp[15] numOutOfOrderArrivals:last nan
attr interpolationmode none
attr title "ping out-of-order arrivals, last"
scalar StarLAN.host[0].pingApp[15] numLost:last 261
attr interpolationmode none
attr title "pings lost, last"
scalar StarLAN.host[0].pingApp[15] rtt:mean 0.021661349599426
attr interpolationmode none
attr title "ping round-trip time, mean"
attr unit s
scalar StarLAN.host[0].pingApp[16] "Pings sent" 384
scalar StarLAN.host[0].pingApp[16] "ping loss rate (%)" 70.052083333333
scalar StarLAN.host[0].pingApp[16] "ping out-of-order rate (%)" 0.26041666666667
scalar StarLAN.host[0].pingApp[16] pingRxSeq:count 89
attr interpolationmode none
attr title "ping rx seq, count"
scalar StarLAN.host[0].pingApp[16] pingTxSeq:count 298
attr interpolationmode none
attr title "ping tx seq, count"
scalar StarLAN.host[0].pingApp[16] numOutOfOrderArrivals:last 1
attr interpolationmode none
attr title "ping out-of-order arrivals, last"
scalar StarLAN.host[0].pingApp[16] numLost:last 269
attr interpolationmode none
attr title "pings lost, last"
scalar StarLAN.host[0].pingApp[16] rtt:mean 0.020705106632433
attr interpolationmode none
attr title "ping round-trip time, mean"
attr unit s
scalar StarLAN.host[0].pingApp[17] "Pings sent" 382
scalar StarLAN.host[0].pingApp[17] "ping loss rate (%)" 68.324607329843
scalar StarLAN.host[0].pingApp[17] "ping out-of-order rate (%)" 0.26178010471204
scalar StarLAN.host[0].pingApp[17] pingRxSeq:count 89
attr interpolationmode none
attr title "ping rx seq, count"
scalar StarLAN.host[0].pingApp[17] pingTxSeq:count 289
attr interpolationmode none
attr title "ping tx seq, count"
scalar StarLAN.host[0].pingApp[17] numOutOfOrderArrivals:last nan
attr interpolationmode none
attr title "ping out-of-order arrivals, last"
scalar StarLAN.host[0].pingApp[17] numLost:last 261
attr interpolationmode none
attr title "pings lost, last"
scalar StarLAN.host[0].pingApp[17] rtt:mean 0.021606199479828
attr interpolationmode none
attr title "ping round-trip time, mean"
attr unit s
scalar StarLAN.host[0].pingApp[18] "Pings sent" 381
scalar StarLAN.host[0].pingApp[18] "ping loss rate (%)" 87.40157480315
scalar StarLAN.host[0].pingApp[18] "ping out-of-order rate (%)" 0
scalar StarLAN.host[0].pingApp[18] pingRxSeq:count 38
attr interpolationmode none
attr title "ping rx seq, count"
scalar StarLAN.host[0].pingApp[18] pingTxSeq:count 293
attr interpolationmode none
attr title "ping tx seq, count"
scalar StarLAN.host[0].pingApp[18] numOutOfOrderArrivals:last nan
attr interpolationmode none
attr title "ping out-of-order arrivals, last"
scalar StarLAN.host[0].pingApp[18] numLost:last 328
attr interpolationmode none
attr title "pings lost, last"
scalar StarLAN.host[0].pingApp[18] rtt:mean 0.0251709090405
attr interpolationmode none
attr title "ping round-trip time, mean"
attr unit s
scalar StarLAN.host[0].pingApp[19] "Pings sent" 394
scalar StarLAN.host[0].pingApp[19] "ping loss rate (%)" 88.071065989848
scalar StarLAN.host[0].pingApp[19] "ping out-of-order rate (%)" 0
scalar StarLAN.host[0].pingApp[19] pingRxSeq:count 33
attr interpolationmode none
attr title "ping rx seq, count"
scalar StarLAN.host[0].pingApp[19] pingTxSeq:count 307
attr interpolationmode none
attr title "ping tx seq, count"
scalar StarLAN.host[0].pingApp[19] numOutOfOrderArrivals:last nan
attr interpolationmode none
attr title "ping out-of-order arrivals, last"
scalar StarLAN.host[0].pingApp[19] numLost:last 339
attr interpolationmode none
attr title "pings lost, last"
scalar StarLAN.host[0].pingApp[19] rtt:mean 0.0254829016306
attr interpolationmode none
attr title "ping round-trip time, mean"
attr unit s
scalar StarLAN.host[0].pingApp[20] "Pings sent" 387
scalar StarLAN.host[0].pingApp[20] "ping loss rate (%)" 90.180878552972
scalar StarLAN.host[0].pingApp[20] "ping out-of-order rate (%)" 0
scalar StarLAN.host[0].pingApp[20] pingRxSeq:count 30
attr interpolationmode none
attr title "ping rx seq, count"
scalar StarLAN.host[0].pingApp[20] pingTxSeq:count 296
attr interpolationmode none
attr title "ping tx seq, count"
scalar StarLAN.host[0].pingApp[20] numOutOfOrderArrivals:last nan
attr interpolationmode none
attr title "ping out-of-order arrivals, last"
scalar StarLAN.host[0].pingApp[20] numLost:last 337
attr interpolationmode none
attr title "pings lost, last"
scalar StarLAN.host[0].pingApp[20] rtt:mean 0.020834338621167
attr interpolationmode none
attr title "ping round-trip time, mean"
attr unit s
scalar StarLAN.host[0].pingApp[21] "Pings sent" 385
scalar StarLAN.host[0].pingApp[21] "ping loss rate (%)" 71.428571428571
scalar StarLAN.host[0].pingApp[21] "ping out-of-order rate (%)" 0
scalar StarLAN.host[0].pingApp[21] pingRxSeq:count 81
attr interpolationmode none
attr title "ping rx seq, count"
scalar StarLAN.host[0].pingApp[21] pingTxSeq:count 287
attr interpolationmode none
attr title "ping tx seq, count"
scalar StarLAN.host[0].pingApp[21] numOutOfOrderArrivals:last nan
attr interpolationmode none
attr title "ping out-of-order arrivals, last"
scalar StarLAN.host[0].pingApp[21] numLost:last 273
attr interpolationmode none
attr title "pings lost, last"
scalar StarLAN.host[0].pingApp[21] rtt:mean 0.022053093611431
attr interpolationmode none
attr title "ping round-trip time, mean"
attr unit s
scalar StarLAN.host[0].pingApp[22] "Pings sent" 389
scalar StarLAN.host[0].pingApp[22] "ping loss rate (%)" 89.460154241645
scalar StarLAN.host[0].pingApp[22] "ping out-of-order rate (%)" 0
scalar StarLAN.host[0].pingApp[22] pingRxSeq:count 34
attr interpolationmode none
attr title "ping rx seq, count"
scalar StarLAN.host[0].pingApp[22] pingTxSeq:count 296
attr interpolationmode none
attr title "ping tx seq, count"
scalar StarLAN.host[0].pingApp[22] numOutOfOrderArrivals:last nan
attr interpolationmode none
attr title "ping out-of-order arrivals, last"
scalar StarLAN.host[0].pingApp[22] numLost:last 319
attr interpolationmode none
attr title "pings lost, last"
scalar StarLAN.host[0].pingApp[22] rtt:mean 0.022866315604333
attr interpolationmode none
attr title "ping round-trip time, mean"
attr unit s
scalar StarLAN.host[0].pingApp[23] "Pings sent" 384
scalar StarLAN.host[0].pingApp[23] "ping loss rate (%)" 74.479166666667
scalar StarLAN.host[0].pingApp[23] "ping out-of-order rate (%)" 0
scalar StarLAN.host[0].pingApp[23] pingRxSeq:count 72
attr interpolationmode none
attr title "ping rx seq, count"
scalar StarLAN.host[0].pingApp[23] pingTxSeq:count 288
attr interpolationmode none
attr title "ping tx seq, count"
scalar StarLAN.host[0].pingApp[23] numOutOfOrderArrivals:last nan
attr interpolationmode none
attr title "ping out-of-order arrivals, last"
scalar StarLAN.host[0].pingApp[23] numLost:last 285
attr interpolationmode none
attr title "pings lost, last"
scalar StarLAN.host[0].pingApp[23] rtt:mean 0.019944766331425
attr interpolationmode none
attr title "ping round-trip time, mean"
attr unit s
scalar StarLAN.host[0].pingApp[24] "Pings sent" 382
scalar StarLAN.host[0].pingApp[24] "ping loss rate (%)" 86.649214659686
scalar StarLAN.host[0].pingApp[24] "ping out-of-order rate (%)" 0
scalar StarLAN.host[0].pingApp[24] pingRxSeq:count 35
attr interpolationmode none
attr title "ping rx seq, count"
scalar StarLAN.host[0].pingApp[24] pingTxSeq:count 293
attr interpolationmode none
attr title "ping tx seq, count"
scalar StarLAN.host[0].pingApp[24] numOutOfOrderArrivals:last nan
attr interpolationmode none
attr title "ping out-of-order arrivals, last"
scalar StarLAN.host[0].pingApp[24] numLost:last 331
attr interpolationmode none
attr title "pings lost, last"
scalar StarLAN.host[0].pingApp[24] rtt:mean 0.02190444135725
attr interpolationmode none
attr title "ping round-trip time, mean"
attr unit s
scalar StarLAN.host[0].pingApp[25] "Pings sent" 386
scalar StarLAN.host[0].pingApp[25] "ping loss rate (%)" 87.305699481865
scalar StarLAN.host[0].pingApp[25] "ping out-of-order rate (%)" 0
scalar StarLAN.host[0].pingApp[25] pingRxSeq:count 38
attr interpolationmode none
attr title "ping rx seq, count"
scalar StarLAN.host[0].pingApp[25] pingTxSeq:count 289
attr interpolationmode none
attr title "ping tx seq, count"
scalar StarLAN.host[0].pingApp[25] numOutOfOrderArrivals:last nan
attr interpolationmode none
attr title "ping out-of-order arrivals, last"
scalar StarLAN.host[0].pingApp[25] numLost:last 319
attr interpolationmode none
attr title "pings lost, last"
scalar StarLAN.host[0].pingApp[25] rtt:mean 0.01670566221725
attr interpolationmode none
attr title "ping round-trip time, mean"
attr unit s
scalar StarLAN.host[0].pingApp[26] "Pings sent" 376
scalar StarLAN.host[0].pingApp[26] "ping loss rate (%)" 74.468085106383
scalar StarLAN.host[0].pingApp[26] "ping out-of-order rate (%)" 0.53191489361702
scalar StarLAN.host[0].pingApp[26] pingRxSeq:count 69
attr interpolationmode none
attr title "ping rx seq, count"
scalar StarLAN.host[0].pingApp[26] pingTxSeq:count 283
attr interpolationmode none
attr title "ping tx seq, count"
scalar StarLAN.host[0].pingApp[26] numOutOfOrderArrivals:last 2
attr interpolationmode none
attr title "ping out-of-order arrivals, last"
scalar StarLAN.host[0].pingApp[26] numLost:last 280
attr interpolationmode none
attr title "pings lost, last"
scalar StarLAN.host[0].pingApp[26] rtt:mean 0.01878066859178
attr interpolationmode none
attr title "ping round-trip time, mean"
attr unit s
scalar StarLAN.host[0].pingApp[27] "Pings sent" 384
scalar StarLAN.host[0].pingApp[27] "ping loss rate (%)" 89.583333333333
scalar StarLAN.host[0].pingApp[27] "ping out-of-order rate (%)" 0
scalar StarLAN.host[0].pingApp[27] pingRxSeq:count 29
attr interpolationmode none
attr title "ping rx seq, count"
scalar StarLAN.host[0].pingApp[27] pingTxSeq:count 298
attr interpolationmode none
attr title "ping tx seq, count"
scalar StarLAN.host[0].pingApp[27] numOutOfOrderArrivals:last nan
attr interpolationmode none
attr title "ping out-of-order arrivals, last"
scalar StarLAN.host[0].pingApp[27] numLost:last 342
attr interpolationmode none
attr title "pings lost, last"
scalar StarLAN.host[0].pingApp[27] rtt:mean 0.022695355971
attr interpolationmode none
attr title "ping round-trip time, mean"
attr unit s
scalar StarLAN.host[0].pingApp[28] "Pings sent" 365
scalar StarLAN.host[0].pingApp[28] "ping loss rate (%)" 87.397260273973
scalar StarLAN.host[0].pingApp[28] "ping out-of-order rate (%)" 0
scalar StarLAN.host[0].pingApp[28] pingRxSeq:count 32
attr interpolationmode none
attr title "ping rx seq, count"
scalar StarLAN.host[0].pingApp[28] pingTxSeq:count 279
attr interpolationmode none
attr title "ping tx seq, count"
scalar StarLAN.host[0].pingApp[28] numOutOfOrderArrivals:last nan
attr interpolationmode none
attr title "ping out-of-order arrivals, last"
scalar StarLAN.host[0].pingApp[28] numLost:last 313
attr interpolationmode none
attr title "pings lost, last"
scalar StarLAN.host[0].pingApp[28] rtt:mean 0.0163554807205
attr interpolationmode none
attr title "ping round-trip time, mean"
attr unit s
scalar StarLAN.host[0].pingApp[29] "Pings sent" 386
scalar StarLAN.host[0].pingApp[29] "ping loss rate (%)" 71.761658031088
scalar StarLAN.host[0].pingApp[29] "ping out-of-order rate (%)" 0
scalar StarLAN.host[0].pingApp[29] pingRxSeq:count 81
attr interpolationmode none
attr title "ping rx seq, count"
scalar StarLAN.host[0].pingApp[29] pingTxSeq:count 294
attr interpolationmode none
attr title "ping tx seq, count"
scalar StarLAN.host[0].pingApp[29] numOutOfOrderArrivals:last nan
attr interpolationmode none
attr title "ping out-of-order arrivals, last"
scalar StarLAN.host[0].pingApp[29] numLost:last 277
attr interpolationmode none
attr title "pings lost, last"
scalar StarLAN.host[0].pingApp[29] rtt:mean 0.021235892460123
attr interpolationmode none
attr title "ping round-trip time, mean"
attr unit s
scalar StarLAN.host[0].pingApp[30] "Pings sent" 398
scalar StarLAN.host[0].pingApp[30] "ping loss rate (%)" 73.869346733668
scalar StarLAN.host[0].pingApp[30] "ping out-of-order rate (%)" 0.25125628140704
scalar StarLAN.host[0].pingApp[30] pingRxSeq:count 79
attr interpolationmode none
attr title "ping rx seq, count"
scalar StarLAN.host[0].pingApp[30] pingTxSeq:count 305
attr interpolationmode none
attr title "ping tx seq, count"
scalar StarLAN.host[0].pingApp[30] numOutOfOrderArrivals:last 1
attr interpolationmode none
attr title "ping out-of-order arrivals, last"
scalar StarLAN.host[0].pingApp[30] numLost:last 283
attr interpolationmode none
attr title "pings lost, last"
scalar StarLAN.host[0].pingApp[30] rtt:mean 0.01932284650531
attr interpolationmode none
attr title "ping round-trip time, mean"
attr unit s
scalar StarLAN.host[0].pingApp[31] "Pings sent" 374
scalar StarLAN.host[0].pingApp[31] "ping loss rate (%)" 68.449197860963
scalar StarLAN.host[0].pingApp[31] "ping out-of-order rate (%)" 0
scalar StarLAN.host[0].pingApp[31] pingRxSeq:count 94
attr interpolationmode none
attr title "ping rx seq, count"
scalar StarLAN.host[0].pingApp[31] pingTxSeq:count 282
attr interpolationmode none
attr title "ping tx seq, count"
scalar StarLAN.host[0].pingApp[31] numOutOfOrderArrivals:last nan
attr interpolationmode none
attr title "ping out-of-order arrivals, last"
scalar StarLAN.host[0].pingApp[31] numLost:last 253
attr interpolationmode none
attr title "pings lost, last"
scalar StarLAN.host[0].pingApp[31] rtt:mean 0.022070918362587
attr interpolationmode none
attr title "ping round-trip time, mean"
attr unit s
scalar StarLAN.host[0].pingApp[32] "Pings sent" 376
scalar StarLAN.host[0].pingApp[32] "ping loss rate (%)" 91.489361702128
scalar StarLAN.host[0].pingApp[32] "ping out-of-order rate (%)" 0
scalar StarLAN.host[0].pingApp[32] pingRxSeq:count 23
attr interpolationmode none
attr title "ping rx seq, count"
scalar StarLAN.host[0].pingApp[32] pingTxSeq:count 291
attr interpolationmode none
attr title "ping tx seq, count"
scalar StarLAN.host[0].pingApp[32] numOutOfOrderArrivals:last nan
attr interpolationmode none
attr title "ping out-of-order arrivals, last"
scalar StarLAN.host[0].pingApp[32] numLost:last 334
attr interpolationmode none
attr title "pings lost, last"
scalar StarLAN.host[0].pingApp[32] rtt:mean 0.019258337192333
attr interpolationmode none
attr title "ping round-trip time, mean"
attr unit s
scalar StarLAN.host[0].pingApp[33] "Pings sent" 389
scalar StarLAN.host[0].pingApp[33] "ping loss rate (%)" 68.637532133676
scalar StarLAN.host[0].pingApp[33] "ping out-of-order rate (%)" 0
scalar StarLAN.host[0].pingApp[33] pingRxSeq:count 88
attr interpolationmode none
attr title "ping rx seq, count"
scalar StarLAN.host[0].pingApp[33] pingTxSeq:count 294
attr interpolationmode none
attr title "ping tx seq, count"
scalar StarLAN.host[0].pingApp[33] numOutOfOrderArrivals:last nan
attr interpolationmode none
attr title "ping out-of-order arrivals, last"
scalar StarLAN.host[0].pingApp[33] numLost:last 261
attr interpolationmode none
attr title "pings lost, last"
scalar StarLAN.host[0].pingApp[33] rtt:mean 0.020866211084368
attr interpolationmode none
attr title "ping round-trip time, mean"
attr unit s
scalar StarLAN.host[0].pingApp[34] "Pings sent" 388
scalar StarLAN.host[0].pingApp[34] "ping loss rate (%)" 87.371134020619
scalar StarLAN.host[0].pingApp[34] "ping out-of-order rate (%)" 0
scalar StarLAN.host[0].pingApp[34] pingRxSeq:count 39
attr interpolationmode none
attr title "ping rx seq, count"
scalar StarLAN.host[0].pingApp[34] pingTxSeq:count 298
attr interpolationmode none
attr title "ping tx seq, count"
scalar StarLAN.host[0].pingApp[34] numOutOfOrderArrivals:last nan
attr interpolationmode none
attr title "ping out-of-order arrivals, last"
scalar StarLAN.host[0].pingApp[34] numLost:last 331
attr interpolationmode none
attr title "pings lost, last"
scalar StarLAN.host[0].pingApp[34] rtt:mean 0.023362016797
attr interpolationmode none
attr title "ping round-trip time, mean"
attr unit s
scalar StarLAN.host[0].pingApp[35] "Pings sent" 377
scalar StarLAN.host[0].pingApp[35] "ping loss rate (%)" 70.026525198939
scalar StarLAN.host[0].pingApp[35] "ping out-of-order rate (%)" 0
scalar StarLAN.host[0].pingApp[35] pingRxSeq:count 80
attr interpolationmode none
attr title "ping rx seq, count"
scalar StarLAN.host[0].pingApp[35] pingTxSeq:count 288
attr interpolationmode none
attr title "ping tx seq, count"
scalar StarLAN.host[0].pingApp[35] numOutOfOrderArrivals:last nan
attr interpolationmode none
attr title "ping out-of-order arrivals, last"
scalar StarLAN.host[0].pingApp[35] numLost:last 260
attr interpolationmode none
attr title "pings lost, last"
scalar StarLAN.host[0].pingApp[35] rtt:mean 0.021735128754294
attr interpolationmode none
attr title "ping round-trip time, mean"
attr unit s
scalar StarLAN.host[0].pingApp[36] "Pings sent" 377
scalar StarLAN.host[0].pingApp[36] "ping loss rate (%)" 90.981432360743
scalar StarLAN.host[0].pingApp[36] "ping out-of-order rate (%)" 0.26525198938992
scalar StarLAN.host[0].pingApp[36] pingRxSeq:count 21
attr interpolationmode none
attr title "ping rx seq, count"
scalar StarLAN.host[0].pingApp[36] pingTxSeq:count 296
attr interpolationmode none
attr title "ping tx seq, count"
scalar StarLAN.host[0].pingApp[36] numOutOfOrderArrivals:last 1
attr interpolationmode none
attr title "ping out-of-order arrivals, last"
scalar StarLAN.host[0].pingApp[36] numLost:last 341
attr interpolationmode none
attr title "pings lost, last"
scalar StarLAN.host[0].pingApp[36] rtt:mean 0.02248403273675
attr interpolationmode none
attr title "ping round-trip time, mean"
attr unit s
scalar StarLAN.host[0].pingApp[37] "Pings sent" 402
scalar StarLAN.host[0].pingApp[37] "ping loss rate (%)" 72.636815920398
scalar StarLAN.host[0].pingApp[37] "ping out-of-order rate (%)" 0.74626865671642
scalar StarLAN.host[0].pingApp[37] pingRxSeq:count 84
attr interpolationmode none
attr title "ping rx seq, count"
scalar StarLAN.host[0].pingApp[37] pingTxSeq:count 307
attr interpolationmode none
attr title "ping tx seq, count"
scalar StarLAN.host[0].pingApp[37] numOutOfOrderArrivals:last 3
attr interpolationmode none
attr title "ping out-of-order arrivals, last"
scalar StarLAN.host[0].pingApp[37] numLost:last 287
attr interpolationmode none
attr title "pings lost, last"
scalar StarLAN.host[0].pingApp[37] rtt:mean 0.021865028573672
attr interpolationmode none
attr title "ping round-trip time, mean"
attr unit s
scalar StarLAN.host[0].pingApp[38] "Pings sent" 370
scalar StarLAN.host[0].pingApp[38] "ping loss rate (%)" 89.189189189189
scalar StarLAN.host[0].pingApp[38] "ping out-of-order rate (%)" 0
scalar StarLAN.host[0].pingApp[38] pingRxSeq:count 33
attr interpolationmode none
attr title "ping rx seq, count"
scalar StarLAN.host[0].pingApp[38] pingTxSeq:count 280
attr interpolationmode none
attr title "ping tx seq, count"
scalar StarLAN.host[0].pingApp[38] numOutOfOrderArrivals:last nan
attr interpolationmode none
attr title "ping out-of-order arrivals, last"
scalar StarLAN.host[0].pingApp[38] numLost:last 323
attr interpolationmode none
attr title "pings lost, last"
scalar StarLAN.host[0].pingApp[38] rtt:mean 0.02451325245
attr interpolationmode none
attr title "ping round-trip time, mean"
attr unit s
scalar StarLAN.host[0].pingApp[39] "Pings sent" 384
scalar StarLAN.host[0].pingApp[39] "ping loss rate (%)" 88.802083333333
scalar StarLAN.host[0].pingApp[39] "ping out-of-order rate (%)" 0
scalar StarLAN.host[0].pingApp[39] pingRxSeq:count 31
attr interpolationmode none
attr title "ping rx seq, count"
scalar StarLAN.host[0].pingApp[39] pingTxSeq:count 292
attr interpolationmode none
attr title "ping tx seq, count"
scalar StarLAN.host[0].pingApp[39] numOutOfOrderArrivals:last nan
attr interpolationmode none
attr title "ping out-of-order arrivals, last"
scalar StarLAN.host[0].pingApp[39] numLost:last 320
attr interpolationmode none
attr title "pings lost, last"
scalar StarLAN.host[0].pingApp[39] rtt:mean 0.019896170051667
attr interpolationmode none
attr title "ping round-trip time, mean"
attr unit s
scalar StarLAN.host[0].pingApp[40] "Pings sent" 379
scalar StarLAN.host[0].pingApp[40] "ping loss rate (%)" 77.572559366755
scalar StarLAN.host[0].pingApp[40] "ping out-of-order rate (%)" 0
scalar StarLAN.host[0].pingApp[40] pingRxSeq:count 64
attr interpolationmode none
attr title "ping rx seq, count"
scalar StarLAN.host[0].pingApp[40] pingTxSeq:count 288
attr interpolationmode none
attr title "ping tx seq, count"
scalar StarLAN.host[0].pingApp[40] numOutOfOrderArrivals:last nan
attr interpolationmode none
attr title "ping out-of-order arrivals, last"
scalar StarLAN.host[0].pingApp[40] numLost:last 279
attr interpolationmode none
attr title "pings lost, last"
scalar StarLAN.host[0].pingApp[40] rtt:mean 0.0203511229165
attr interpolationmode none
attr title "ping round-trip time, mean"
attr unit s
scalar StarLAN.host[0].pingApp[41] "Pings sent" 372
scalar StarLAN.host[0].pingApp[41] "ping loss rate (%)" 88.709677419355
scalar StarLAN.host[0].pingApp[41] "ping out-of-order rate (%)" 0
scalar StarLAN.host[0].pingApp[41] pingRxSeq:count 31
attr interpolationmode none
attr title "ping rx seq, count"
scalar StarLAN.host[0].pingApp[41] pingTxSeq:count 283
attr interpolationmode none
attr title "ping tx seq, count"
scalar StarLAN.host[0].pingApp[41] numOutOfOrderArrivals:last nan
attr interpolationmode none
attr title "ping out-of-order arrivals, last"
scalar StarLAN.host[0].pingApp[41] numLost:last 326
attr interpolationmode none
attr title "pings lost, last"
scalar StarLAN.host[0].pingApp[41] rtt:mean 0.0231101083958
attr interpolationmode none
attr title "ping round-trip time, mean"
attr unit s
scalar StarLAN.host[0].pingApp[42] "Pings sent" 397
scalar StarLAN.host[0].pingApp[42] "ping loss rate (%)" 66.750629722922
scalar StarLAN.host[0].pingApp[42] "ping out-of-order rate (%)" 0.25188916876574
scalar StarLAN.host[0].pingApp[42] pingRxSeq:count 99
attr interpolationmode none
attr title "ping rx seq, count"
scalar StarLAN.host[0].pingApp[42] pingTxSeq:count 300
attr interpolationmode none
attr title "ping tx seq, count"
scalar StarLAN.host[0].pingApp[42] numOutOfOrderArrivals:last 1
attr interpolationmode none
attr title "ping out-of-order arrivals, last"
scalar StarLAN.host[0].pingApp[42] numLost:last 262
attr interpolationmode none
attr title "pings lost, last"
scalar StarLAN.host[0].pingApp[42] rtt:mean 0.021030251034129
attr interpolationmode none
attr title "ping round-trip time, mean"
attr unit s
scalar StarLAN.host[0].pingApp[43] "Pings sent" 376
scalar StarLAN.host[0].pingApp[43] "ping loss rate (%)" 71.808510638298
scalar StarLAN.host[0].pingApp[43] "ping out-of-order rate (%)" 0.26595744680851
scalar StarLAN.host[0].pingApp[43] pingRxSeq:count 73
attr interpolationmode none
attr title "ping rx seq, count"
scalar StarLAN.host[0].pingApp[43] pingTxSeq:count 282
attr interpolationmode none
attr title "ping tx seq, count"
scalar StarLAN.host[0].pingApp[43] numOutOfOrderArrivals:last 1
attr interpolationmode none
attr title "ping out-of-order arrivals, last"
scalar StarLAN.host[0].pingApp[43] numLost:last 265
attr interpolationmode none
attr title "pings lost, last"
scalar StarLAN.host[0].pingApp[43] rtt:mean 0.021070150971326
attr interpolationmode none
attr title "ping round-trip time, mean"
attr unit s
scalar StarLAN.host[0].pingApp[44] "Pings sent" 384
scalar StarLAN.host[0].pingApp[44] "ping loss rate (%)" 89.84375
scalar StarLAN.host[0].pingApp[44] "ping out-of-order rate (%)" 0
scalar StarLAN.host[0].pingApp[44] pingRxSeq:count 27
attr interpolationmode none
attr title "ping rx seq, count"
scalar StarLAN.host[0].pingApp[44] pingTxSeq:count 292
attr interpolationmode none
attr title "ping tx seq, count"
scalar StarLAN.host[0].pingApp[44] numOutOfOrderArrivals:last nan
attr interpolationmode none
attr title "ping out-of-order arrivals, last"
scalar StarLAN.host[0].pingApp[44] numLost:last 343
attr interpolationmode none
attr title "pings lost, last"
scalar StarLAN.host[0].pingApp[44] rtt:mean 0.0241366622005
attr interpolationmode none
attr title "ping round-trip time, mean"
attr unit s
scalar StarLAN.host[0].pingApp[45] "Pings sent" 389
scalar StarLAN.host[0].pingApp[45] "ping loss rate (%)" 87.917737789203
scalar StarLAN.host[0].pingApp[45] "ping out-of-order rate (%)" 0
scalar StarLAN.host[0].pingApp[45] pingRxSeq:count 37
attr interpolationmode none
attr title "ping rx seq, count"
scalar StarLAN.host[0].pingApp[45] pingTxSeq:count 291
attr interpolationmode none
attr title "ping tx seq, count"
scalar StarLAN.host[0].pingApp[45] numOutOfOrderArrivals:last nan
attr interpolationmode none
attr title "ping out-of-order arrivals, last"
scalar StarLAN.host[0].pingApp[45] numLost:last 319
attr interpolationmode none
attr title "pings lost, last"
scalar StarLAN.host[0].pingApp[45] rtt:mean 0.0224170196758
attr interpolationmode none
attr title "ping round-trip time, mean"
attr unit s
scalar StarLAN.host[0].pingApp[46] "Pings sent" 399
scalar StarLAN.host[0].pingApp[46] "ping loss rate (%)" 86.71679197995
scalar StarLAN.host[0].pingApp[46] "ping out-of-order rate (%)" 0
scalar StarLAN.host[0].pingApp[46] pingRxSeq:count 36
attr interpolationmode none
attr title "ping rx seq, count"
scalar StarLAN.host[0].pingApp[46] pingTxSeq:count 294
attr interpolationmode none
attr title "ping tx seq, count"
scalar StarLAN.host[0].pingApp[46] numOutOfOrderArrivals:last nan
attr interpolationmode none
attr title "ping out-of-order arrivals, last"
scalar StarLAN.host[0].pingApp[46] numLost:last 342
attr interpolationmode none
attr title "pings lost, last"
scalar StarLAN.host[0].pingApp[46] rtt:mean 0.021848701332667
attr interpolationmode none
attr title "ping round-trip time, mean"
attr unit s
scalar StarLAN.host[0].pingApp[47] "Pings sent" 383
scalar StarLAN.host[0].pingApp[47] "ping loss rate (%)" 71.801566579634
scalar StarLAN.host[0].pingApp[47] "ping out-of-order rate (%)" 0.26109660574413
scalar StarLAN.host[0].pingApp[47] pingRxSeq:count 77
attr interpolationmode none
attr title "ping rx seq, count"
scalar StarLAN.host[0].pingApp[47] pingTxSeq:count 291
attr interpolationmode none
attr title "ping tx seq, count"
scalar StarLAN.host[0].pingApp[47] numOutOfOrderArrivals:last 1
attr interpolationmode none
attr title "ping out-of-order arrivals, last"
scalar StarLAN.host[0].pingApp[47] numLost:last 267
attr interpolationmode none
attr title "pings lost, last"
scalar StarLAN.host[0].pingApp[47] rtt:mean 0.020332294135574
attr interpolationmode none
attr title "ping round-trip time, mean"
attr unit s
scalar StarLAN.host[0].pingApp[48] "Pings sent" 377
scalar StarLAN.host[0].pingApp[48] "ping loss rate (%)" 70.026525198939
scalar StarLAN.host[0].pingApp[48] "ping out-of-order rate (%)" 0
scalar StarLAN.host[0].pingApp[48] pingRxSeq:count 94
attr interpolationmode none
attr title "ping rx seq, count"
scalar StarLAN.host[0].pingApp[48] pingTxSeq:count 291
attr interpolationmode none
attr title "ping tx seq, count"
scalar StarLAN.host[0].pingApp[48] numOutOfOrderArrivals:last nan
attr interpolationmode none
attr title "ping out-of-order arrivals, last"
scalar StarLAN.host[0].pingApp[48] numLost:last 260
attr interpolationmode none
attr title "pings lost, last"
scalar StarLAN.host[0].pingApp[48] rtt:mean 0.021164360496152
attr interpolationmode none
attr title "ping round-trip time, mean"
attr unit s
scalar StarLAN.host[0].pingApp[49] "Pings sent" 404
scalar StarLAN.host[0].pingApp[49] "ping loss rate (%)" 72.277227722772
scalar StarLAN.host[0].pingApp[49] "ping out-of-order rate (%)" 0.24752475247525
scalar StarLAN.host[0].pingApp[49] pingRxSeq:count 84
attr interpolationmode none
attr title "ping rx seq, count"
scalar StarLAN.host[0].pingApp[49] pingTxSeq:count 301
attr interpolationmode none
attr title "ping tx seq, count"
scalar StarLAN.host[0].pingApp[49] numOutOfOrderArrivals:last 1
attr interpolationmode none
attr title "ping out-of-order arrivals, last"
scalar StarLAN.host[0].pingApp[49] numLost:last 286
attr interpolationmode none
attr title "pings lost, last"
scalar StarLAN.host[0].pingApp[49] rtt:mean 0.020125493849694
attr interpolationmode none
attr title "ping round-trip time, mean"
attr unit s
scalar StarLAN.host[0].pingApp[50] "Pings sent" 408
scalar StarLAN.host[0].pingApp[50] "ping loss rate (%)" 75
scalar StarLAN.host[0].pingApp[50] "ping out-of-order rate (%)" 0
scalar StarLAN.host[0].pingApp[50] pingRxSeq:count 73
attr interpolationmode none
attr title "ping rx seq, count"
scalar StarLAN.host[0].pingApp[50] pingTxSeq:count 308
attr interpolationmode none
attr title "ping tx seq, count"
scalar StarLAN.host[0].pingApp[50] numOutOfOrderArrivals:last nan
attr interpolationmode none
attr title "ping out-of-order arrivals, last"
scalar StarLAN.host[0].pingApp[50] numLost:last 305
attr interpolationmode none
attr title "pings lost, last"
scalar StarLAN.host[0].pingApp[50] rtt:mean 0.019535652469191
attr interpolationmode none
attr title "ping round-trip time, mean"
attr unit s
scalar StarLAN.host[0].pingApp[51] "Pings sent" 373
scalar StarLAN.host[0].pingApp[51] "ping loss rate (%)" 89.008042895442
scalar StarLAN.host[0].pingApp[51] "ping out-of-order rate (%)" 0
scalar StarLAN.host[0].pingApp[51] pingRxSeq:count 28
attr interpolationmode none
attr title "ping rx seq, count"
scalar StarLAN.host[0].pingApp[51] pingTxSeq:count 282
attr interpolationmode none
attr title "ping tx seq, count"
scalar StarLAN.host[0].pingApp[51] numOutOfOrderArrivals:last nan
attr interpolationmode none
attr title "ping out-of-order arrivals, last"
scalar StarLAN.host[0].pingApp[51] numLost:last 330
attr interpolationmode none
attr title "pings lost, last"
scalar StarLAN.host[0].pingApp[51] rtt:mean 0.023165071937
attr interpolationmode none
attr title "ping round-trip time, mean"
attr unit s
scalar StarLAN.host[0].pingApp[52] "Pings sent" 388
scalar StarLAN.host[0].pingApp[52] "ping loss rate (%)" 87.371134020619
scalar StarLAN.host[0].pingApp[52] "ping out-of-order rate (%)" 0
scalar StarLAN.host[0].pingApp[52] pingRxSeq:count 38
attr interpolationmode none
attr title "ping rx seq, count"
scalar StarLAN.host[0].pingApp[52] pingTxSeq:count 298
attr interpolationmode none
attr title "ping tx seq, count"
scalar StarLAN.host[0].pingApp[52] numOutOfOrderArrivals:last nan
attr interpolationmode none
attr title "ping out-of-order arrivals, last"
scalar StarLAN.host[0].pingApp[52] numLost:last 330
attr interpolationmode none
attr title "pings lost, last"
scalar StarLAN.host[0].pingApp[52] rtt:mean 0.024294989702
attr interpolationmode none
attr title "ping round-trip time, mean"
attr unit s
scalar StarLAN.host[0].pingApp[53] "Pings sent" 391
scalar StarLAN.host[0].pingApp[53] "ping loss rate (%)" 86.700767263427
scalar StarLAN.host[0].pingApp[53] "ping out-of-order rate (%)" 0
scalar StarLAN.host[0].pingApp[53] pingRxSeq:count 40
attr interpolationmode none
attr title "ping rx seq, count"
scalar StarLAN.host[0].pingApp[53] pingTxSeq:count 290
attr interpolationmode none
attr title "ping tx seq, count"
scalar StarLAN.host[0].pingApp[53] numOutOfOrderArrivals:last nan
attr interpolationmode none
attr title "ping out-of-order arrivals, last"
scalar StarLAN.host[0].pingApp[53] numLost:last 339
attr interpolationmode none
attr title "pings lost, last"
scalar StarLAN.host[0].pingApp[53] rtt:mean 0.02214991493125
attr interpolationmode none
attr title "ping round-trip time, mean"
attr unit s
scalar StarLAN.host[0].pingApp[54] "Pings sent" 370
scalar StarLAN.host[0].pingApp[54] "ping loss rate (%)" 88.918918918919
scalar StarLAN.host[0].pingApp[54] "ping out-of-order rate (%)" 0
scalar StarLAN.host[0].pingApp[54] pingRxSeq:count 34
attr interpolationmode none
attr title "ping rx seq, count"
scalar StarLAN.host[0].pingApp[54] pingTxSeq:count 279
attr interpolationmode none
attr title "ping tx seq, count"
scalar StarLAN.host[0].pingApp[54] numOutOfOrderArrivals:last nan
attr interpolationmode none
attr title "ping out-of-order arrivals, last"
scalar StarLAN.host[0].pingApp[54] numLost:last 327
attr interpolationmode none
attr title "pings lost, last"
scalar StarLAN.host[0].pingApp[54] rtt:mean nan
attr interpolationmode none
attr title "ping round-trip time, mean"
attr unit s
scalar StarLAN.host[0].pingApp[55] "Pings sent" 383
scalar StarLAN.host[0].pingApp[55] "ping loss rate (%)" 88.511749347258
scalar StarLAN.host[0].pingApp[55] "ping out-of-order rate (%)" 0
scalar StarLAN.host[0].pingApp[55] pingRxSeq:count 36
attr interpolationmode none
attr title "ping rx seq, count"
scalar StarLAN.host[0].pingApp[55] pingTxSeq:count 292
attr interpolationmode none
attr title "ping tx seq, count"
scalar StarLAN.host[0].pingApp[55] numOutOfOrderArrivals:last nan
attr interpolationmode none
attr title "ping out-of-order arrivals, last"
scalar StarLAN.host[0].pingApp[55] numLost:last 310
attr interpolationmode none
attr title "pings lost, last"
scalar StarLAN.host[0].pingApp[55] rtt:mean 0.0264441010055
attr interpolationmode none
attr title "ping round-trip time, mean"
attr unit s
scalar StarLAN.host[0].pingApp[56] "Pings sent" 400
scalar StarLAN.host[0].pingApp[56] "ping loss rate (%)" 89.25
scalar StarLAN.host[0].pingApp[56] "ping out-of-order rate (%)" 0
scalar StarLAN.host[0].pingApp[56] pingRxSeq:count 36
attr interpolationmode none
attr title "ping rx seq, count"
scalar StarLAN.host[0].pingApp[56] pingTxSeq:count 307
attr interpolationmode none
attr title "ping tx seq, count"
scalar StarLAN.host[0].pingApp[56] numOutOfOrderArrivals:last nan
attr interpolationmode none
attr title "ping out-of-order arrivals, last"
scalar StarLAN.host[0].pingApp[56] numLost:last 350
attr interpolationmode none
attr title "pings lost, last"
scalar StarLAN.host[0].pingApp[56] rtt:mean 0.0242528353308
attr interpolationmode none
attr title "ping round-trip time, mean"
attr unit s
scalar StarLAN.host[0].pingApp[57] "Pings sent" 378
scalar StarLAN.host[0].pingApp[57] "ping loss rate (%)" 87.830687830688
scalar StarLAN.host[0].pingApp[57] "ping out-of-order rate (%)" 0
scalar StarLAN.host[0].pingApp[57] pingRxSeq:count 33
attr interpolationmode none
attr title "ping rx seq, count"
scalar StarLAN.host[0].pingApp[57] pingTxSeq:count 282
attr interpolationmode none
attr title "ping tx seq, count"
scalar StarLAN.host[0].pingApp[57] numOutOfOrderArrivals:last nan
attr interpolationmode none
attr title "ping out-of-order arrivals, last"
scalar StarLAN.host[0].pingApp[57] numLost:last 332
attr interpolationmode none
attr title "pings lost, last"
scalar StarLAN.host[0].pingApp[57] rtt:mean 0.0227378572098
attr interpolationmode none
attr title "ping round-trip time, mean"
attr unit s
scalar StarLAN.host[0].pingApp[58] "Pings sent" 397
scalar StarLAN.host[0].pingApp[58] "ping loss rate (%)" 71.284634760705
scalar StarLAN.host[0].pingApp[58] "ping out-of-order rate (%)" 0
scalar StarLAN.host[0].pingApp[58] pingRxSeq:count 89
attr interpolationmode none
attr title "ping rx seq, count"
scalar StarLAN.host[0].pingApp[58] pingTxSeq:count 299
attr interpolationmode none
attr title "ping tx seq, count"
scalar StarLAN.host[0].pingApp[58] numOutOfOrderArrivals:last nan
attr interpolationmode none
attr title "ping out-of-order arrivals, last"
scalar StarLAN.host[0].pingApp[58] numLost:last 280
attr interpolationmode none
attr title "pings lost, last"
scalar StarLAN.host[0].pingApp[58] rtt:mean 0.020190589627
attr interpolationmode none
attr title "ping round-trip time, mean"
attr unit s
scalar StarLAN.host[0].pingApp[59] "Pings sent" 399
scalar StarLAN.host[0].pingApp[59] "ping loss rate (%)" 69.674185463659
scalar StarLAN.host[0].pingApp[59] "ping out-of-order rate (%)" 0
scalar StarLAN.host[0].pingApp[59] pingRxSeq:count 94
attr interpolationmode none
attr title "ping rx seq, count"
scalar StarLAN.host[0].pingApp[59] pingTxSeq:count 301
attr interpolationmode none
attr title "ping tx seq, count"
scalar StarLAN.host[0].pingApp[59] numOutOfOrderArrivals:last nan
attr interpolationmode none
attr title "ping out-of-order arrivals, last"
scalar StarLAN.host[0].pingApp[59] numLost:last 276
attr interpolationmode none
attr title "pings lost, last"
scalar StarLAN.host[0].pingApp[59] rtt:mean 0.020202347020038
attr interpolationmode none
attr title "ping round-trip time, mean"
attr unit s
scalar StarLAN.host[0].pingApp[60] "Pings sent" 386
scalar StarLAN.host[0].pingApp[60] "ping loss rate (%)" 86.528497409326
scalar StarLAN.host[0].pingApp[60] "ping out-of-order rate (%)" 0
scalar StarLAN.host[0].pingApp[60] pingRxSeq:count 39
attr interpolationmode none
attr title "ping rx seq, count"
scalar StarLAN.host[0].pingApp[60] pingTxSeq:count 292
attr interpolationmode none
attr title "ping tx seq, count"
scalar StarLAN.host[0].pingApp[60] numOutOfOrderArrivals:last nan
attr interpolationmode none
attr title "ping out-of-order arrivals, last"
scalar StarLAN.host[0].pingApp[60] numLost:last 328
attr interpolationmode none
attr title "pings lost, last"
scalar StarLAN.host[0].pingApp[60] rtt:mean 0.020264191445833
attr interpolationmode none
attr title "ping round-trip time, mean"
attr unit s
scalar StarLAN.host[0].pingApp[61] "Pings sent" 395
scalar StarLAN.host[0].pingApp[61] "ping loss rate (%)" 88.101265822785
scalar StarLAN.host[0].pingApp[61] "ping out-of-order rate (%)" 0
scalar StarLAN.host[0].pingApp[61] pingRxSeq:count 37
attr interpolationmode none
attr title "ping rx seq, count"
scalar StarLAN.host[0].pingApp[61] pingTxSeq:count 299
attr interpolationmode none
attr title "ping tx seq, count"
scalar StarLAN.host[0].pingApp[61] numOutOfOrderArrivals:last nan
attr interpolationmode none
attr title "ping out-of-order arrivals, last"
scalar StarLAN.host[0].pingApp[61] numLost:last 343
attr interpolationmode none
attr title "pings lost, last"
scalar StarLAN.host[0].pingApp[61] rtt:mean 0.015348249116
attr interpolationmode none
attr title "ping round-trip time, mean"
attr unit s
scalar StarLAN.host[0].pingApp[62] "Pings sent" 382
scalar StarLAN.host[0].pingApp[62] "ping loss rate (%)" 91.623036649215
scalar StarLAN.host[0].pingApp[62] "ping out-of-order rate (%)" 0
scalar StarLAN.host[0].pingApp[62] pingRxSeq:count 25
attr interpolationmode none
attr title "ping rx seq, count"
scalar StarLAN.host[0].pingApp[62] pingTxSeq:count 289
attr interpolationmode none
attr title "ping tx seq, count"
scalar StarLAN.host[0].pingApp[62] numOutOfOrderArrivals:last nan
attr interpolationmode none
attr title "ping out-of-order arrivals, last"
scalar StarLAN.host[0].pingApp[62] numLost:last 344
attr interpolationmode none
attr title "pings lost, last"
scalar StarLAN.host[0].pingApp[62] rtt:mean 0.028460447502
attr interpolationmode none
attr title "ping round-trip time, mean"
attr unit s
scalar StarLAN.host[0].pingApp[63] "Pings sent" 380
scalar StarLAN.host[0].pingApp[63] "ping loss rate (%)" 88.684210526316
scalar StarLAN.host[0].pingApp[63] "ping out-of-order rate (%)" 0
scalar StarLAN.host[0].pingApp[63] pingRxSeq:count 28
attr interpolationmode none
attr title "ping rx seq, count"
scalar StarLAN.host[0].pingApp[63] pingTxSeq:count 286
attr interpolationmode none
attr title "ping tx seq, count"
scalar StarLAN.host[0].pingApp[63] numOutOfOrderArrivals:last nan
attr interpolationmode none
attr title "ping out-of-order arrivals, last"
scalar StarLAN.host[0].pingApp[63] numLost:last 335
attr interpolationmode none
attr title "pings lost, last"
scalar StarLAN.host[0].pingApp[63] rtt:mean 0.024684691194333
attr interpolationmode none
attr title "ping round-trip time, mean"
attr unit s
scalar StarLAN.host[0].pingApp[64] "Pings sent" 390
scalar StarLAN.host[0].pingApp[64] "ping loss rate (%)" 89.74358974359
scalar StarLAN.host[0].pingApp[64] "ping out-of-order rate (%)" 0
scalar StarLAN.host[0].pingApp[64] pingRxSeq:count 29
attr interpolationmode none
attr title "ping rx seq, count"
scalar StarLAN.host[0].pingApp[64] pingTxSeq:count 294
attr interpolationmode none
attr title "ping tx seq, count"
scalar StarLAN.host[0].pingApp[64] numOutOfOrderArrivals:last nan
attr interpolationmode none
attr title "ping out-of-order arrivals, last"
scalar StarLAN.host[0].pingApp[64] numLost:last 345
attr interpolationmode none
attr title "pings lost, last"
scalar StarLAN.host[0].pingApp[64] rtt:mean 0.022651904715667
attr interpolationmode none
attr title "ping round-trip time, mean"
attr unit s
scalar StarLAN.host[0].pingApp[65] "Pings sent" 399
scalar StarLAN.host[0].pingApp[65] "ping loss rate (%)" 69.674185463659
scalar StarLAN.host[0].pingApp[65] "ping out-of-order rate (%)" 0
scalar StarLAN.host[0].pingApp[65] pingRxSeq:count 92
attr interpolationmode none
attr title "ping rx seq, count"
scalar StarLAN.host[0].pingApp[65] pingTxSeq:count 305
attr interpolationmode none
attr title "ping tx seq, count"
scalar StarLAN.host[0].pingApp[65] numOutOfOrderArrivals:last nan
attr interpolationmode none
attr title "ping out-of-order arrivals, last"
scalar StarLAN.host[0].pingApp[65] numLost:last 277
attr interpolationmode none
attr title "pings lost, last"
scalar StarLAN.host[0].pingApp[65] rtt:mean 0.021749377172194
attr interpolationmode none
attr title "ping round-trip time, mean"
attr unit s
scalar StarLAN.host[0].pingApp[66] "Pings sent" 388
scalar StarLAN.host[0].pingApp[66] "ping loss rate (%)" 90.20618556701
scalar StarLAN.host[0].pingApp[66] "ping out-of-order rate (%)" 0
scalar StarLAN.host[0].pingApp[66] pingRxSeq:count 25
attr interpolationmode none
attr title "ping rx seq, count"
scalar StarLAN.host[0].pingApp[66] pingTxSeq:count 299
attr interpolationmode none
attr title "ping tx seq, count"
scalar StarLAN.host[0].pingApp[66] numOutOfOrderArrivals:last nan
attr interpolationmode none
attr title "ping out-of-order arrivals, last"
scalar StarLAN.host[0].pingApp[66] numLost:last 334
attr interpolationmode none
attr title "pings lost, last"
scalar StarLAN.host[0].pingApp[66] rtt:mean 0.020690711741
attr interpolationmode none
attr title "ping round-trip time, mean"
attr unit s
scalar StarLAN.host[0].pingApp[67] "Pings sent" 375
scalar StarLAN.host[0].pingApp[67] "ping loss rate (%)" 64.8
scalar StarLAN.host[0].pingApp[67] "ping out-of-order rate (%)" 0
scalar StarLAN.host[0].pingApp[67] pingRxSeq:count 104
attr interpolationmode none
attr title "ping rx seq, count"
scalar StarLAN.host[0].pingApp[67] pingTxSeq:count 293
attr interpolationmode none
attr title "ping tx seq, count"
scalar StarLAN.host[0].pingApp[67] numOutOfOrderArrivals:last nan
attr interpolationmode none
attr title "ping out-of-order arrivals, last"
scalar StarLAN.host[0].pingApp[67] numLost:last 243
attr interpolationmode none
attr title "pings lost, last"
scalar StarLAN.host[0].pingApp[67] rtt:mean 0.021255483658323
attr interpolationmode none
attr title "ping round-trip time, mean"
attr unit s
scalar StarLAN.host[0].pingApp[68] "Pings sent" 385
scalar StarLAN.host[0].pingApp[68] "ping loss rate (%)" 67.532467532468
scalar StarLAN.host[0].pingApp[68] "ping out-of-order rate (%)" 0.77922077922078
scalar StarLAN.host[0].pingApp[68] pingRxSeq:count 98
attr interpolationmode none
attr title "ping rx seq, count"
scalar StarLAN.host[0].pingApp[68] pingTxSeq:count 282
attr interpolationmode none
attr title "ping tx seq, count"
scalar StarLAN.host[0].pingApp[68] numOutOfOrderArrivals:last 3
attr interpolationmode none
attr title "ping out-of-order arrivals, last"
scalar StarLAN.host[0].pingApp[68] numLost:last 260
attr interpolationmode none
attr title "pings lost, last"
scalar StarLAN.host[0].pingApp[68] rtt:mean 0.022052789848985
attr interpolationmode none
attr title "ping round-trip time, mean"
attr unit s
scalar StarLAN.host[0].pingApp[69] "Pings sent" 379
scalar StarLAN.host[0].pingApp[69] "ping loss rate (%)" 89.445910290237
scalar StarLAN.host[0].pingApp[69] "ping out-of-order rate (%)" 0
scalar StarLAN.host[0].pingApp[69] pingRxSeq:count 35
attr interpolationmode none
attr title "ping rx seq, count"
scalar StarLAN.host[0].pingApp[69] pingTxSeq:count 291
attr interpolationmode none
attr title "ping tx seq, count"
scalar StarLAN.host[0].pingApp[69] numOutOfOrderArrivals:last nan
attr interpolationmode none
attr title "ping out-of-order arrivals, last"
scalar StarLAN.host[0].pingApp[69] numLost:last 331
attr interpolationmode none
attr title "pings lost, last"
scalar StarLAN.host[0].pingApp[69] rtt:mean 0.0218649748185
attr interpolationmode none
attr title "ping round-trip time, mean"
attr unit s
scalar StarLAN.host[0].pingApp[70] "Pings sent" 388
scalar StarLAN.host[0].pingApp[70] "ping loss rate (%)" 90.20618556701
scalar StarLAN.host[0].pingApp[70] "ping out-of-order rate (%)" 0
scalar StarLAN.host[0].pingApp[70] pingRxSeq:count 26
attr interpolationmode none
attr title "ping rx seq, count"
scalar StarLAN.host[0].pingApp[70] pingTxSeq:count 297
attr interpolationmode none
attr title "ping tx seq, count"
scalar StarLAN.host[0].pingApp[70] numOutOfOrderArrivals:last nan
attr interpolationmode none
attr title "ping out-of-order arrivals, last"
scalar StarLAN.host[0].pingApp[70] numLost:last 343
attr interpolationmode none
attr title "pings lost, last"
scalar StarLAN.host[0].pingApp[70] rtt:mean 0.0242426100635
attr interpolationmode none
attr title "ping round-trip time, mean"
attr unit s
scalar StarLAN.host[0].pingApp[71] "Pings sent" 380
scalar StarLAN.host[0].pingApp[71] "ping loss rate (%)" 91.842105263158
scalar StarLAN.host[0].pingApp[71] "ping out-of-order rate (%)" 0
scalar StarLAN.host[0].pingApp[71] pingRxSeq:count 23
attr interpolationmode none
attr title "ping rx seq, count"
scalar StarLAN.host[0].pingApp[71] pingTxSeq:count 287
attr interpolationmode none
attr title "ping tx seq, count"
scalar StarLAN.host[0].pingApp[71] numOutOfOrderArrivals:last nan
attr interpolationmode none
attr title "ping out-of-order arrivals, last"
scalar StarLAN.host[0].pingApp[71] numLost:last 338
attr interpolationmode none
attr title "pings lost, last"
scalar StarLAN.host[0].pingApp[71] rtt:mean 0.0228007777348
attr interpolationmode none
attr title "ping round-trip time, mean"
attr unit s
scalar StarLAN.host[0].pingApp[72] "Pings sent" 394
scalar StarLAN.host[0].pingApp[72] "ping loss rate (%)" 68.020304568528
scalar StarLAN.host[0].pingApp[72] "ping out-of-order rate (%)" 0.25380710659898
scalar StarLAN.host[0].pingApp[72] pingRxSeq:count 95
attr interpolationmode none
attr title "ping rx seq, count"
scalar StarLAN.host[0].pingApp[72] pingTxSeq:count 300
attr interpolationmode none
attr title "ping tx seq, count"
scalar StarLAN.host[0].pingApp[72] numOutOfOrderArrivals:last 1
attr interpolationmode none
attr title "ping out-of-order arrivals, last"
scalar StarLAN.host[0].pingApp[72] numLost:last 264
attr interpolationmode none
attr title "pings lost, last"
scalar StarLAN.host[0].pingApp[72] rtt:mean 0.021908366707894
attr interpolationmode none
attr title "ping round-trip time, mean"
attr unit s
scalar StarLAN.host[0].pingApp[73] "Pings sent" 383
scalar StarLAN.host[0].pingApp[73] "ping loss rate (%)" 69.973890339426
scalar StarLAN.host[0].pingApp[73] "ping out-of-order rate (%)" 0
scalar StarLAN.host[0].pingApp[73] pingRxSeq:count 90
attr interpolationmode none
attr title "ping rx seq, count"
scalar StarLAN.host[0].pingApp[73] pingTxSeq:count 296
attr interpolationmode none
attr title "ping tx seq, count"
scalar StarLAN.host[0].pingApp[73] numOutOfOrderArrivals:last nan
attr interpolationmode none
attr title "ping out-of-order arrivals, last"
scalar StarLAN.host[0].pingApp[73] numLost:last 268
attr interpolationmode none
attr title "pings lost, last"
scalar StarLAN.host[0].pingApp[73] rtt:mean 0.021490293639426
attr interpolationmode none
attr title "ping round-trip time, mean"
attr unit s
scalar StarLAN.host[0].pingApp[74] "Pings sent" 387
scalar StarLAN.host[0].pingApp[74] "ping loss rate (%)" 86.821705426357
scalar StarLAN.host[0].pingApp[74] "ping out-of-order rate (%)" 0
scalar StarLAN.host[0].pingApp[74] pingRxSeq:count 39
attr interpolationmode none
attr title "ping rx seq, count"
scalar StarLAN.host[0].pingApp[74] pingTxSeq:count 293
attr interpolationmode none
attr title "ping tx seq, count"
scalar StarLAN.host[0].pingApp[74] numOutOfOrderArrivals:last nan
attr interpolationmode none
attr title "ping out-of-order arrivals, last"
scalar StarLAN.host[0].pingApp[74] numLost:last 334
attr interpolationmode none
attr title "pings lost, last"
scalar StarLAN.host[0].pingApp[74] rtt:mean 0.02209915136325
attr interpolationmode none
attr title "ping round-trip time, mean"
attr unit s
scalar StarLAN.host[0].pingApp[75] "Pings sent" 384
scalar StarLAN.host[0].pingApp[75] "ping loss rate (%)" 73.958333333333
scalar StarLAN.host[0].pingApp[75] "ping out-of-order rate (%)" 0
scalar StarLAN.host[0].pingApp[75] pingRxSeq:count 73
attr interpolationmode none
attr title "ping rx seq, count"
scalar StarLAN.host[0].pingApp[75] pingTxSeq:count 296
attr interpolationmode none
attr title "ping tx seq, count"
scalar StarLAN.host[0].pingApp[75] numOutOfOrderArrivals:last nan
attr interpolationmode none
attr title "ping out-of-order arrivals, last"
scalar StarLAN.host[0].pingApp[75] numLost:last 284
attr interpolationmode none
attr title "pings lost, last"
scalar StarLAN.host[0].pingApp[75] rtt:mean 0.020770591351923
attr interpolationmode none
attr title "ping round-trip time, mean"
attr unit s
scalar StarLAN.host[0].pingApp[76] "Pings sent" 379
scalar StarLAN.host[0].pingApp[76] "ping loss rate (%)" 89.182058047493
scalar StarLAN.host[0].pingApp[76] "ping out-of-order rate (%)" 0
scalar StarLAN.host[0].pingApp[76] pingRxSeq:count 26
attr interpolationmode none
attr title "ping rx seq, count"
scalar StarLAN.host[0].pingApp[76] pingTxSeq:count 287
attr interpolationmode none
attr title "ping tx seq, count"
scalar StarLAN.host[0].pingApp[76] numOutOfOrderArrivals:last nan
attr interpolationmode none
attr title "ping out-of-order arrivals, last"
scalar StarLAN.host[0].pingApp[76] numLost:last 337
attr interpolationmode none
attr title "pings lost, last"
scalar StarLAN.host[0].pingApp[76] rtt:mean nan
attr interpolationmode none
attr title "ping round-trip time, mean"
attr unit s
scalar StarLAN.host[0].pingApp[77] "Pings sent" 378
scalar StarLAN.host[0].pingApp[77] "ping loss rate (%)" 69.312169312169
scalar StarLAN.host[0].pingApp[77] "ping out-of-order rate (%)" 0.52910052910053
scalar StarLAN.host[0].pingApp[77] pingRxSeq:count 95
attr interpolationmode none
attr title "ping rx seq, count"
scalar StarLAN.host[0].pingApp[77] pingTxSeq:count 294
attr interpolationmode none
attr title "ping tx seq, count"
scalar StarLAN.host[0].pingApp[77] numOutOfOrderArrivals:last 2
attr interpolationmode none
attr title "ping out-of-order arrivals, last"
scalar StarLAN.host[0].pingApp[77] numLost:last 259
attr interpolationmode none
attr title "pings lost, last"
scalar StarLAN.host[0].pingApp[77] rtt:mean 0.021384701199121
attr interpolationmode none
attr title "ping round-trip time, mean"
attr unit s
scalar StarLAN.host[0].pingApp[78] "Pings sent" 375
scalar StarLAN.host[0].pingApp[78] "ping loss rate (%)" 69.866666666667
scalar StarLAN.host[0].pingApp[78] "ping out-of-order rate (%)" 0
scalar StarLAN.host[0].pingApp[78] pingRxSeq:count 84
attr interpolationmode none
attr title "ping rx seq, count"
scalar StarLAN.host[0].pingApp[78] pingTxSeq:count 283
attr interpolationmode none
attr title "ping tx seq, count"
scalar StarLAN.host[0].pingApp[78] numOutOfOrderArrivals:last nan
attr interpolationmode none
attr title "ping out-of-order arrivals, last"
scalar StarLAN.host[0].pingApp[78] numLost:last 262
attr interpolationmode none
attr title "pings lost, last"
scalar StarLAN.host[0].pingApp[78] rtt:mean 0.020834784945723
attr interpolationmode none
attr title "ping round-trip time, mean"
attr unit s
scalar StarLAN.host[0].pingApp[79] "Pings sent" 372
scalar StarLAN.host[0].pingApp[79] "ping loss rate (%)" 70.967741935484
scalar StarLAN.host[0].pingApp[79] "ping out-of-order rate (%)" 0.26881720430108
scalar StarLAN.host[0].pingApp[79] pingRxSeq:count 81
attr interpolationmode none
attr title "ping rx seq, count"
scalar StarLAN.host[0].pingApp[79] pingTxSeq:count 282
attr interpolationmode none
attr title "ping tx seq, count"
scalar StarLAN.host[0].pingApp[79] numOutOfOrderArrivals:last nan
attr interpolationmode none
attr title "ping out-of-order arrivals, last"
scalar StarLAN.host[0].pingApp[79] numLost:last 260
attr interpolationmode none
attr title "pings lost, last"
scalar StarLAN.host[0].pingApp[79] rtt:mean 0.021956607020475
attr interpolationmode none
attr title "ping round-trip time, mean"
attr unit s
scalar StarLAN.host[0].pingApp[80] "Pings sent" 379
scalar StarLAN.host[0].pingApp[80] "ping loss rate (%)" 72.031662269129
scalar StarLAN.host[0].pingApp[80] "ping out-of-order rate (%)" 0
scalar StarLAN.host[0].pingApp[80] pingRxSeq:count 77
attr interpolationmode none
attr title "ping rx seq, count"
scalar StarLAN.host[0].pingApp[80] pingTxSeq:count 282
attr interpolationmode none
attr title "ping tx seq, count"
scalar StarLAN.host[0].pingApp[80] numOutOfOrderArrivals:last nan
attr interpolationmode none
attr title "ping out-of-order arrivals, last"
scalar StarLAN.host[0].pingApp[80] numLost:last 270
attr interpolationmode none
attr title "pings lost, last"
scalar StarLAN.host[0].pingApp[80] rtt:mean 0.020235099963534
attr interpolationmode none
attr title "ping round-trip time, mean"
attr unit s
scalar StarLAN.host[0].pingApp[81] "Pings sent" 380
scalar StarLAN.host[0].pingApp[81] "ping loss rate (%)" 89.473684210526
scalar StarLAN.host[0].pingApp[81] "ping out-of-order rate (%)" 0
scalar StarLAN.host[0].pingApp[81] pingRxSeq:count 28
attr interpolationmode none
attr title "ping rx seq, count"
scalar StarLAN.host[0].pingApp[81] pingTxSeq:count 288
attr interpolationmode none
attr title "ping tx seq, count"
scalar StarLAN.host[0].pingApp[81] numOutOfOrderArrivals:last nan
attr interpolationmode none
attr title "ping out-of-order arrivals, last"
scalar StarLAN.host[0].pingApp[81] numLost:last 340
attr interpolationmode none
attr title "pings lost, last"
scalar StarLAN.host[0].pingApp[81] rtt:mean 0.023412951922667
attr interpolationmode none
attr title "ping round-trip time, mean"
attr unit s
scalar StarLAN.host[0].pingApp[82] "Pings sent" 401
scalar StarLAN.host[0].pingApp[82] "ping loss rate (%)" 89.27680798005
scalar StarLAN.host[0].pingApp[82] "ping out-of-order rate (%)" 0
scalar StarLAN.host[0].pingApp[82] pingRxSeq:count 33
attr interpolationmode none
attr title "ping rx seq, count"
scalar StarLAN.host[0].pingApp[82] pingTxSeq:count 295
attr interpolationmode none
attr title "ping tx seq, count"
scalar StarLAN.host[0].pingApp[82] numOutOfOrderArrivals:last nan
attr interpolationmode none
attr title "ping out-of-order arrivals, last"
scalar StarLAN.host[0].pingApp[82] numLost:last 357
attr interpolationmode none
attr title "pings lost, last"
scalar StarLAN.host[0].pingApp[82] rtt:mean 0.019138427628667
attr interpolationmode none
attr title "ping round-trip time, mean"
attr unit s
scalar StarLAN.host[0].pingApp[83] "Pings sent" 369
scalar StarLAN.host[0].pingApp[83] "ping loss rate (%)" 89.430894308943
scalar StarLAN.host[0].pingApp[83] "ping out-of-order rate (%)" 0
scalar StarLAN.host[0].pingApp[83] pingRxSeq:count 26
attr interpolationmode none
attr title "ping rx seq, count"
scalar StarLAN.host[0].pingApp[83] pingTxSeq:count 285
attr interpolationmode none
attr title "ping tx seq, count"
scalar StarLAN.host[0].pingApp[83] numOutOfOrderArrivals:last nan
attr interpolationmode none
attr title "ping out-of-order arrivals, last"
scalar StarLAN.host[0].pingApp[83] numLost:last 325
attr interpolationmode none
attr title "pings lost, last"
scalar StarLAN.host[0].pingApp[83] rtt:mean 0.02177727157625
attr interpolationmode none
attr title "ping round-trip time, mean"
attr unit s
scalar StarLAN.host[0].pingApp[84] "Pings sent" 393
scalar StarLAN.host[0].pingApp[84] "ping loss rate (%)" 67.175572519084
scalar StarLAN.host[0].pingApp[84] "ping out-of-order rate (%)" 0.76335877862595
scalar StarLAN.host[0].pingApp[84] pingRxSeq:count 98
attr interpolationmode none
attr title "ping rx seq, count"
scalar StarLAN.host[0].pingApp[84] pingTxSeq:count 297
attr interpolationmode none
attr title "ping tx seq, count"
scalar StarLAN.host[0].pingApp[84] numOutOfOrderArrivals:last 3
attr interpolationmode none
attr title "ping out-of-order arrivals, last"
scalar StarLAN.host[0].pingApp[84] numLost:last 259
attr interpolationmode none
attr title "pings lost, last"
scalar StarLAN.host[0].pingApp[84] rtt:mean 0.021386363361949
attr interpolationmode none
attr title "ping round-trip time, mean"
attr unit s
scalar StarLAN.host[0].pingApp[85] "Pings sent" 383
scalar StarLAN.host[0].pingApp[85] "ping loss rate (%)" 90.078328981723
scalar StarLAN.host[0].pingApp[85] "ping out-of-order rate (%)" 0
scalar StarLAN.host[0].pingApp[85] pingRxSeq:count 20
attr interpolationmode none
attr title "ping rx seq, count"
scalar StarLAN.host[0].pingApp[85] pingTxSeq:count 293
attr interpolationmode none
attr title "ping tx seq, count"
scalar StarLAN.host[0].pingApp[85] numOutOfOrderArrivals:last nan
attr interpolationmode none
attr title "ping out-of-order arrivals, last"
scalar StarLAN.host[0].pingApp[85] numLost:last 296
attr interpolationmode none
attr title "pings lost, last"
[...]
field min 0
field max 0.008313969645
field sum 71.003796162197
field sqrsum 0.32987902239405
attr interpolationmode none
attr title "queueing time, histogram"
bin	-inf	0
bin	-0.00176705764	0
bin	-0.0013852659046667	0
bin	-0.0010034741693333	0
bin	-0.000621682434	0
bin	-0.00023989069866667	1231
bin	0.00014190103666667	857
bin	0.000523692772	1174
bin	0.00090548450733333	1101
bin	0.0012872762426667	1075
bin	0.001669067978	1134
bin	0.0020508597133333	1094
bin	0.0024326514486667	1128
bin	0.002814443184	1161
bin	0.0031962349193333	1108
bin	0.0035780266546667	1164
bin	0.00395981839	1200
bin	0.0043416101253333	1127
bin	0.0047234018606667	1173
bin	0.005105193596	1154
bin	0.0054869853313333	1173
bin	0.0058687770666667	1109
bin	0.006250568802	826
bin	0.0066323605373333	558
bin	0.0070141522726667	297
bin	0.007395944008	130
bin	0.0077777357433333	38
bin	0.0081595274786667	2
bin	0.008541319214	0
bin	0.0089231109493333	0
bin	0.0093049026846667	0
bin	0.00968669442	0
scalar StarLAN.router.eth[7].queue.dataQueue dropPk:count 1210
attr interpolationmode none
attr source dropPkByQueue
attr title "dropped packets, count"
scalar StarLAN.router.eth[7].queue.dataQueue dropPk:sum(packetBytes) 918155
attr interpolationmode none
attr source dropPkByQueue
attr title "dropped packets, sum(packetBytes)"
scalar StarLAN.router.eth[7].queue.dataQueue rcvdPk:count 22224
attr interpolationmode none
attr title "received packets, count"
scalar StarLAN.router.eth[7].queue.dataQueue rcvdPk:sum(packetBytes) 18344717
attr interpolationmode none
attr title "received packets, sum(packetBytes)"
scalar StarLAN.router.eth[7].mac "simulated time" 20
scalar StarLAN.router.eth[7].mac full-duplex 1
scalar StarLAN.router.eth[7].mac "frames/sec sent" 1398.2
scalar StarLAN.router.eth[7].mac "frames/sec rcvd" 1442.2
scalar StarLAN.router.eth[7].mac "bits/sec sent" 9247260
scalar StarLAN.router.eth[7].mac "bits/sec rcvd" 9725298
scalar StarLAN.router.eth[7].mac "rx channel idle (%)" 1.824012
scalar StarLAN.router.eth[7].mac "rx channel utilization (%)" 98.175988
scalar StarLAN.router.eth[7].mac "rx channel collision (%)" 0
scalar StarLAN.router.eth[7].mac collisions 0
scalar StarLAN.router.eth[7].mac backoffs 0
scalar StarLAN.router.eth[7].mac backoff:count 0
attr interpolationmode none
attr title "backoff, count"
scalar StarLAN.router.eth[7].mac collision:count 0
attr interpolationmode none
attr title "collision, count"
scalar StarLAN.router.eth[7].mac rxPkFromHL:count 21014
attr interpolationmode none
attr source rxPkFromHL
attr title "packet bytes from higher layer, count"
scalar StarLAN.router.eth[7].mac rxPkFromHL:sum(packetBytes) 17427840
attr interpolationmode none
attr source rxPkFromHL
attr title "packet bytes from higher layer, sum(packetBytes)"
scalar StarLAN.router.eth[7].mac rxPausePkUnits:count 0
attr interpolationmode none
attr title "pause units received, count"
scalar StarLAN.router.eth[7].mac rxPausePkUnits:sum 0
attr interpolationmode none
attr title "pause units received, sum"
scalar StarLAN.router.eth[7].mac txPausePkUnits:count 0
attr interpolationmode none
attr title "pause units sent, count"
scalar StarLAN.router.eth[7].mac txPausePkUnits:sum 0
attr interpolationmode none
attr title "pause units sent, sum"
scalar StarLAN.router.eth[7].mac txPk:count 21014
attr interpolationmode none
attr source txPk
attr title "packets transmitted, count"
scalar StarLAN.router.eth[7].mac txPk:sum(packetBytes) 17427338
attr interpolationmode none
attr source txPk
attr title "packets transmitted, sum(packetBytes)"
scalar StarLAN.router.eth[7].mac droppedPkNotForUs:count 0
attr interpolationmode none
attr source dropPkNotForUs
attr title "packets dropped/not for us, count"
scalar StarLAN.router.eth[7].mac droppedPkNotForUs:sum(packetBytes) 0
attr interpolationmode none
attr source dropPkNotForUs
attr title "packets dropped/not for us, sum(packetBytes)"
scalar StarLAN.router.eth[7].mac droppedPkBitError:count 0
attr interpolationmode none
attr source dropPkBitError
attr title "packets dropped/bit error, count"
scalar StarLAN.router.eth[7].mac droppedPkBitError:sum(packetBytes) 0
attr interpolationmode none
attr source dropPkBitError
attr title "packets dropped/bit error, sum(packetBytes)"
scalar StarLAN.router.eth[7].mac droppedPkIfaceDown:count 0
attr interpolationmode none
attr source dropPkIfaceDown
attr title "packets dropped/interface down, count"
scalar StarLAN.router.eth[7].mac droppedPkIfaceDown:sum(packetBytes) 0
attr interpolationmode none
attr source dropPkIfaceDown
attr title "packets dropped/interface down, sum(packetBytes)"
scalar StarLAN.router.eth[7].mac rxPkOk:count 21671
attr interpolationmode none
attr source rxPkOk
attr title "packets received OK, count"
scalar StarLAN.router.eth[7].mac rxPkOk:sum(packetBytes) 18316659
attr interpolationmode none
attr source rxPkOk
attr title "packets received OK, sum(packetBytes)"
scalar StarLAN.router.eth[7].mac passedUpPk:count 21671
attr interpolationmode none
attr source packetSentToUpper
attr title "packets passed to higher layer, count"
scalar StarLAN.router.eth[7].mac passedUpPk:sum(packetBytes) 18316659
attr interpolationmode none
attr source packetSentToUpper
attr title "packets passed to higher layer, sum(packetBytes)"
scalar StarLAN.router.eth[8].queue.pauseQueue queueLength:max nan
attr interpolationmode sample-hold
attr title "queue length, max"
scalar StarLAN.router.eth[8].queue.pauseQueue queueLength:timeavg nan
attr interpolationmode sample-hold
attr title "queue length, timeavg"
statistic StarLAN.router.eth[8].queue.pauseQueue queueingTime:histogram
field count 0
field mean nan
field stddev nan
field min nan
field max nan
field sum 0
field sqrsum 0
attr interpolationmode none
attr title "queueing time, histogram"
bin	-inf	0
bin	-0.5	0
bin	-0.46666666666667	0
bin	-0.43333333333333	0
bin	-0.4	0
bin	-0.36666666666667	0
bin	-0.33333333333333	0
bin	-0.3	0
bin	-0.26666666666667	0
bin	-0.23333333333333	0
bin	-0.2	0
bin	-0.16666666666667	0
bin	-0.13333333333333	0
bin	-0.1	0
bin	-0.066666666666667	0
bin	-0.033333333333333	0
bin	0	0
bin	0.033333333333333	0
bin	0.066666666666667	0
bin	0.1	0
bin	0.13333333333333	0
bin	0.16666666666667	0
bin	0.2	0
bin	0.23333333333333	0
bin	0.26666666666667	0
bin	0.3	0
bin	0.33333333333333	0
bin	0.36666666666667	0
bin	0.4	0
bin	0.43333333333333	0
bin	0.46666666666667	0
bin	0.5	0
scalar StarLAN.router.eth[8].queue.pauseQueue dropPk:count 0
attr interpolationmode none
attr source dropPkByQueue
attr title "dropped packets, count"
scalar StarLAN.router.eth[8].queue.pauseQueue dropPk:sum(packetBytes) 0
attr interpolationmode none
attr source dropPkByQueue
attr title "dropped packets, sum(packetBytes)"
scalar StarLAN.router.eth[8].queue.pauseQueue rcvdPk:count 0
attr interpolationmode none
attr title "received packets, count"
scalar StarLAN.router.eth[8].queue.pauseQueue rcvdPk:sum(packetBytes) 0
attr interpolationmode none
attr title "received packets, sum(packetBytes)"
scalar StarLAN.router.eth[8].queue.dataQueue queueLength:max 10
attr interpolationmode sample-hold
attr title "queue length, max"
scalar StarLAN.router.eth[8].queue.dataQueue queueLength:timeavg 4.6095487257447
attr interpolationmode sample-hold
attr title "queue length, timeavg"
statistic StarLAN.router.eth[8].queue.dataQueue queueingTime:histogram
field count 21153
field mean 0.0032691679330982
field stddev 0.0020563775267334
field min 0
field max 0.008107258274
field sum 69.152709288825
field sqrsum 0.31551703953235
attr interpolationmode none
attr title "queueing time, histogram"
bin	-inf	0
bin	-0.0010806575795	0
bin	-0.00069852885823333	0
bin	-0.00031640013696667	1143
bin	6.57285843e-005	831
bin	0.00044785730556667	1233
bin	0.00082998602683333	1131
bin	0.0012121147481	1225
bin	0.0015942434693667	1216
bin	0.0019763721906333	1239
bin	0.0023585009119	1141
bin	0.0027406296331667	1145
bin	0.0031227583544333	1148
bin	0.0035048870757	1171
bin	0.0038870157969667	1141
bin	0.0042691445182333	1150
bin	0.0046512732395	1095
bin	0.0050334019607667	1122
bin	0.0054155306820333	1047
bin	0.0057976594033	1048
bin	0.0061797881245667	835
bin	0.0065619168458333	603
bin	0.0069440455671	329
bin	0.0073261742883667	117
bin	0.0077083030096333	42
bin	0.0080904317309	1
bin	0.0084725604521667	0
bin	0.0088546891734333	0
bin	0.0092368178947	0
bin	0.0096189466159667	0
bin	0.010001075337233	0
bin	0.0103832040585	0
scalar StarLAN.router.eth[8].queue.dataQueue dropPk:count 1177
attr interpolationmode none
attr source dropPkByQueue
attr title "dropped packets, count"
scalar StarLAN.router.eth[8].queue.dataQueue dropPk:sum(packetBytes) 890580
attr interpolationmode none
attr source dropPkByQueue
attr title "dropped packets, sum(packetBytes)"
scalar StarLAN.router.eth[8].queue.dataQueue rcvdPk:count 22327
attr interpolationmode none
attr title "received packets, count"
scalar StarLAN.router.eth[8].queue.dataQueue rcvdPk:sum(packetBytes) 18330822
attr interpolationmode none
attr title "received packets, sum(packetBytes)"
scalar StarLAN.router.eth[8].mac "simulated time" 20
scalar StarLAN.router.eth[8].mac full-duplex 1
scalar StarLAN.router.eth[8].mac "frames/sec sent" 1403.05
scalar StarLAN.router.eth[8].mac "frames/sec rcvd" 1473.8
scalar StarLAN.router.eth[8].mac "bits/sec sent" 9230959.2
scalar StarLAN.router.eth[8].mac "bits/sec rcvd" 9723075.6
scalar StarLAN.router.eth[8].mac "rx channel idle (%)" 1.826012
scalar StarLAN.router.eth[8].mac "rx channel utilization (%)" 98.173988
scalar StarLAN.router.eth[8].mac "rx channel collision (%)" 0
scalar StarLAN.router.eth[8].mac collisions 0
scalar StarLAN.router.eth[8].mac backoffs 0
scalar StarLAN.router.eth[8].mac backoff:count 0
attr interpolationmode none
attr title "backoff, count"
scalar StarLAN.router.eth[8].mac collision:count 0
attr interpolationmode none
attr title "collision, count"
scalar StarLAN.router.eth[8].mac rxPkFromHL:count 21153
attr interpolationmode none
attr source rxPkFromHL
attr title "packet bytes from higher layer, count"
scalar StarLAN.router.eth[8].mac rxPkFromHL:sum(packetBytes) 17444022
attr interpolationmode none
attr source rxPkFromHL
attr title "packet bytes from higher layer, sum(packetBytes)"
scalar StarLAN.router.eth[8].mac rxPausePkUnits:count 0
attr interpolationmode none
attr title "pause units received, count"
scalar StarLAN.router.eth[8].mac rxPausePkUnits:sum 0
attr interpolationmode none
attr title "pause units received, sum"
scalar StarLAN.router.eth[8].mac txPausePkUnits:count 0
attr interpolationmode none
attr title "pause units sent, count"
scalar StarLAN.router.eth[8].mac txPausePkUnits:sum 0
attr interpolationmode none
attr title "pause units sent, sum"
scalar StarLAN.router.eth[8].mac txPk:count 21153
attr interpolationmode none
attr source txPk
attr title "packets transmitted, count"
scalar StarLAN.router.eth[8].mac txPk:sum(packetBytes) 17443790
attr interpolationmode none
attr source txPk
attr title "packets transmitted, sum(packetBytes)"
scalar StarLAN.router.eth[8].mac droppedPkNotForUs:count 0
attr interpolationmode none
attr source dropPkNotForUs
attr title "packets dropped/not for us, count"
scalar StarLAN.router.eth[8].mac droppedPkNotForUs:sum(packetBytes) 0
attr interpolationmode none
attr source dropPkNotForUs
attr title "packets dropped/not for us, sum(packetBytes)"
scalar StarLAN.router.eth[8].mac droppedPkBitError:count 0
attr interpolationmode none
attr source dropPkBitError
attr title "packets dropped/bit error, count"
scalar StarLAN.router.eth[8].mac droppedPkBitError:sum(packetBytes) 0
attr interpolationmode none
attr source dropPkBitError
attr title "packets dropped/bit error, sum(packetBytes)"
scalar StarLAN.router.eth[8].mac droppedPkIfaceDown:count 0
attr interpolationmode none
attr source dropPkIfaceDown
attr title "packets dropped/interface down, count"
scalar StarLAN.router.eth[8].mac droppedPkIfaceDown:sum(packetBytes) 0
attr interpolationmode none
attr source dropPkIfaceDown
attr title "packets dropped/interface down, sum(packetBytes)"
scalar StarLAN.router.eth[8].mac rxPkOk:count 22182
attr interpolationmode none
attr source rxPkOk
attr title "packets received OK, count"
scalar StarLAN.router.eth[8].mac rxPkOk:sum(packetBytes) 18306285
attr interpolationmode none
attr source rxPkOk
attr title "packets received OK, sum(packetBytes)"
scalar StarLAN.router.eth[8].mac passedUpPk:count 22182
attr interpolationmode none
attr source packetSentToUpper
attr title "packets passed to higher layer, count"
scalar StarLAN.router.eth[8].mac passedUpPk:sum(packetBytes) 18306285
attr interpolationmode none
attr source packetSentToUpper
attr title "packets passed to higher layer, sum(packetBytes)"
scalar StarLAN.router.eth[9].queue.pauseQueue queueLength:max nan
attr interpolationmode sample-hold
attr title "queue length, max"
scalar StarLAN.router.eth[9].queue.pauseQueue queueLength:timeavg nan
attr interpolationmode sample-hold
attr title "queue length, timeavg"
statistic StarLAN.router.eth[9].queue.pauseQueue queueingTime:histogram
field count 0
field mean nan
field stddev nan
field min nan
field max nan
field sum 0
field sqrsum 0
attr interpolationmode none
attr title "queueing time, histogram"
bin	-inf	0
bin	-0.5	0
bin	-0.46666666666667	0
bin	-0.43333333333333	0
bin	-0.4	0
bin	-0.36666666666667	0
bin	-0.33333333333333	0
bin	-0.3	0
bin	-0.26666666666667	0
bin	-0.23333333333333	0
bin	-0.2	0
bin	-0.16666666666667	0
bin	-0.13333333333333	0
bin	-0.1	0
bin	-0.066666666666667	0
bin	-0.033333333333333	0
bin	0	0
bin	0.033333333333333	0
bin	0.066666666666667	0
bin	0.1	0
bin	0.13333333333333	0
bin	0.16666666666667	0
bin	0.2	0
bin	0.23333333333333	0
bin	0.26666666666667	0
bin	0.3	0
bin	0.33333333333333	0
bin	0.36666666666667	0
bin	0.4	0
bin	0.43333333333333	0
bin	0.46666666666667	0
bin	0.5	0
scalar StarLAN.router.eth[9].queue.pauseQueue dropPk:count 0
attr interpolationmode none
attr source dropPkByQueue
attr title "dropped packets, count"
scalar StarLAN.router.eth[9].queue.pauseQueue dropPk:sum(packetBytes) 0
attr interpolationmode none
attr source dropPkByQueue
attr title "dropped packets, sum(packetBytes)"
scalar StarLAN.router.eth[9].queue.pauseQueue rcvdPk:count 0
attr interpolationmode none
attr title "received packets, count"
scalar StarLAN.router.eth[9].queue.pauseQueue rcvdPk:sum(packetBytes) 0
attr interpolationmode none
attr title "received packets, sum(packetBytes)"
scalar StarLAN.router.eth[9].queue.dataQueue queueLength:max 10
attr interpolationmode sample-hold
attr title "queue length, max"
scalar StarLAN.router.eth[9].queue.dataQueue queueLength:timeavg 4.8556528487642
attr interpolationmode sample-hold
attr title "queue length, timeavg"
statistic StarLAN.router.eth[9].queue.dataQueue queueingTime:histogram
field count 21329
field mean 0.0034140826513185
field stddev 0.0020521559694329
field min 0
field max 0.008287476831
field sum 72.818968869971
field sqrsum 0.33842952575863
attr interpolationmode none
attr title "queueing time, histogram"
bin	-inf	0
bin	-0.003329746085	0
bin	-0.0028857799403333	0
bin	-0.0024418137956667	0
bin	-0.001997847651	0
bin	-0.0015538815063333	0
bin	-0.0011099153616667	0
bin	-0.000665949217	0
bin	-0.00022198307233333	1304
bin	0.00022198307233333	1131
bin	0.000665949217	1241
bin	0.0011099153616667	1286
bin	0.0015538815063333	1358
bin	0.001997847651	1339
bin	0.0024418137956667	1392
bin	0.0028857799403333	1346
bin	0.003329746085	1335
bin	0.0037737122296667	1350
bin	0.0042176783743333	1366
bin	0.004661644519	1370
bin	0.0051056106636667	1412
bin	0.0055495768083333	1427
bin	0.005993542953	1223
bin	0.0064375090976667	874
bin	0.0068814752423333	416
bin	0.007325441387	142
bin	0.0077694075316667	16
bin	0.0082133736763333	1
bin	0.008657339821	0
bin	0.0091013059656667	0
bin	0.0095452721103333	0
bin	0.009989238255	0
scalar StarLAN.router.eth[9].queue.dataQueue dropPk:count 1386
attr interpolationmode none
attr source dropPkByQueue
attr title "dropped packets, count"
scalar StarLAN.router.eth[9].queue.dataQueue dropPk:sum(packetBytes) 1058486
attr interpolationmode none
attr source dropPkByQueue
attr title "dropped packets, sum(packetBytes)"
scalar StarLAN.router.eth[9].queue.dataQueue rcvdPk:count 22721
attr interpolationmode none
attr title "received packets, count"
scalar StarLAN.router.eth[9].queue.dataQueue rcvdPk:sum(packetBytes) 18569943
attr interpolationmode none
attr title "received packets, sum(packetBytes)"
scalar StarLAN.router.eth[9].mac "simulated time" 20
scalar StarLAN.router.eth[9].mac full-duplex 1
scalar StarLAN.router.eth[9].mac "frames/sec sent" 1415.65
scalar StarLAN.router.eth[9].mac "frames/sec rcvd" 1497.05
scalar StarLAN.router.eth[9].mac "bits/sec sent" 9275351.6
scalar StarLAN.router.eth[9].mac "bits/sec rcvd" 9720972.4
scalar StarLAN.router.eth[9].mac "rx channel idle (%)" 1.832164
scalar StarLAN.router.eth[9].mac "rx channel utilization (%)" 98.167836
scalar StarLAN.router.eth[9].mac "rx channel collision (%)" 0
scalar StarLAN.router.eth[9].mac collisions 0
scalar StarLAN.router.eth[9].mac backoffs 0
scalar StarLAN.router.eth[9].mac backoff:count 0
attr interpolationmode none
attr title "backoff, count"
scalar StarLAN.router.eth[9].mac collision:count 0
attr interpolationmode none
attr title "collision, count"
scalar StarLAN.router.eth[9].mac rxPkFromHL:count 21329
attr interpolationmode none
attr source rxPkFromHL
attr title "packet bytes from higher layer, count"
scalar StarLAN.router.eth[9].mac rxPkFromHL:sum(packetBytes) 17506229
attr interpolationmode none
attr source rxPkFromHL
attr title "packet bytes from higher layer, sum(packetBytes)"
scalar StarLAN.router.eth[9].mac rxPausePkUnits:count 0
attr interpolationmode none
attr title "pause units received, count"
scalar StarLAN.router.eth[9].mac rxPausePkUnits:sum 0
attr interpolationmode none
attr title "pause units received, sum"
scalar StarLAN.router.eth[9].mac txPausePkUnits:count 0
attr interpolationmode none
attr title "pause units sent, count"
scalar StarLAN.router.eth[9].mac txPausePkUnits:sum 0
attr interpolationmode none
attr title "pause units sent, sum"
scalar StarLAN.router.eth[9].mac txPk:count 21329
attr interpolationmode none
attr source txPk
attr title "packets transmitted, count"
scalar StarLAN.router.eth[9].mac txPk:sum(packetBytes) 17506229
attr interpolationmode none
attr source txPk
attr title "packets transmitted, sum(packetBytes)"
scalar StarLAN.router.eth[9].mac droppedPkNotForUs:count 0
attr interpolationmode none
attr source dropPkNotForUs
attr title "packets dropped/not for us, count"
scalar StarLAN.router.eth[9].mac droppedPkNotForUs:sum(packetBytes) 0
attr interpolationmode none
attr source dropPkNotForUs
attr title "packets dropped/not for us, sum(packetBytes)"
scalar StarLAN.router.eth[9].mac droppedPkBitError:count 0
attr interpolationmode none
attr source dropPkBitError
attr title "packets dropped/bit error, count"
scalar StarLAN.router.eth[9].mac droppedPkBitError:sum(packetBytes) 0
attr interpolationmode none
attr source dropPkBitError
attr title "packets dropped/bit error, sum(packetBytes)"
scalar StarLAN.router.eth[9].mac droppedPkIfaceDown:count 0
attr interpolationmode none
attr source dropPkIfaceDown
attr title "packets dropped/interface down, count"
scalar StarLAN.router.eth[9].mac droppedPkIfaceDown:sum(packetBytes) 0
attr interpolationmode none
attr source dropPkIfaceDown
attr title "packets dropped/interface down, sum(packetBytes)"
scalar StarLAN.router.eth[9].mac rxPkOk:count 22513
attr interpolationmode none
attr source rxPkOk
attr title "packets received OK, count"
scalar StarLAN.router.eth[9].mac rxPkOk:sum(packetBytes) 18299919
attr interpolationmode none
attr source rxPkOk
attr title "packets received OK, sum(packetBytes)"
scalar StarLAN.router.eth[9].mac passedUpPk:count 22513
attr interpolationmode none
attr source packetSentToUpper
attr title "packets passed to higher layer, count"
scalar StarLAN.router.eth[9].mac passedUpPk:sum(packetBytes) 18299919
attr interpolationmode none
attr source packetSentToUpper
attr title "packets passed to higher layer, sum(packetBytes)"

