version 2
run StarLAN10-datarate-2-20180110-19:18:29-12312
attr configname StarLAN10-datarate
attr datetime 20180110-19:18:29
attr experiment StarLAN10-datarate
attr inifile StarLAN.ini
attr iterationvars $pa=128
attr iterationvarsf pa=128-
attr measurement $pa=128
attr network StarLAN
attr processid 12312
attr repetition 0
attr replication #0
attr resultdir results
attr runnumber 2
attr seedset 2
itervar pa 128
param *.numHosts 10
param **.datarate 100Mbps
param **.host[*].pingApp[*].sendInterval "truncnormal(50ms, 25ms)"
param **.host[*].pingApp[*].packetSize "truncnormal(1024B, 512B)"
param **.queueType "\"DropTailQueue\""
param **.frameCapacity 10
param **.mtu 1024B
param **.host[*].numPingApps 128
param **.host[*].pingApp[*].typename "\"PingApp\""
param **.host[*].pingApp[*].count 1
param **.host[*].pingApp[*].startTime "truncnormal(200ms, 100ms)"
param **.host[*].pingApp[*].destAddr "\"*\""

scalar StarLAN.host[0].networkLayer.arp sentReply:count 0
attr title "ARP replies sent, count"
scalar StarLAN.host[0].networkLayer.arp sentReq:count 0
attr title "ARP request sent, count"
scalar StarLAN.host[0].networkLayer.arp failedARPResolution:count 0
attr title "ARP failed resolutions, count"
scalar StarLAN.host[0].networkLayer.arp completedARPResolution:count 0
attr title "ARP completed resolutions, count"
scalar StarLAN.host[0].networkLayer.arp initiatedARPResolution:count 0
attr title "ARP initiated resolutions, count"
scalar StarLAN.host[0].lo0.lo droppedPkBitError:count 0
attr interpolationmode none
attr source dropPkBitError
attr title "packets dropped/bit error, count"
scalar StarLAN.host[0].lo0.lo droppedPkBitError:sum(packetBytes) 0
attr interpolationmode none
attr source dropPkBitError
attr title "packets dropped/bit error, sum(packetBytes)"
scalar StarLAN.host[0].lo0.lo rcvdPkFromHL:count 11726
attr interpolationmode none
attr source packetReceivedFromUpper
attr title "packets received from higher layer, count"
scalar StarLAN.host[0].lo0.lo rcvdPkFromHL:sum(packetBytes) 7988704
attr interpolationmode none
attr source packetReceivedFromUpper
attr title "packets received from higher layer, sum(packetBytes)"
scalar StarLAN.host[0].lo0.lo passedUpPk:count 11726
attr interpolationmode none
attr source packetSentToUpper
attr title "packets passed to higher layer, count"
scalar StarLAN.host[0].lo0.lo passedUpPk:sum(packetBytes) 7988704
attr interpolationmode none
attr source packetSentToUpper
attr title "packets passed to higher layer, sum(packetBytes)"
scalar StarLAN.host[0].eth[0].queue.pauseQueue queueLength:max nan
attr interpolationmode sample-hold
attr title "queue length, max"
scalar StarLAN.host[0].eth[0].queue.pauseQueue queueLength:timeavg nan
attr interpolationmode sample-hold
attr title "queue length, timeavg"
statistic StarLAN.host[0].eth[0].queue.pauseQueue queueingTime:histogram
field count 0
field mean nan
field stddev nan
field min nan
field max nan
field sum 0
field sqrsum 0
attr interpolationmode none
attr title "queueing time, histogram"
bin	-inf	0
bin	-0.5	0
bin	-0.46666666666667	0
bin	-0.43333333333333	0
bin	-0.4	0
bin	-0.36666666666667	0
bin	-0.33333333333333	0
bin	-0.3	0
bin	-0.26666666666667	0
bin	-0.23333333333333	0
bin	-0.2	0
bin	-0.16666666666667	0
bin	-0.13333333333333	0
bin	-0.1	0
bin	-0.066666666666667	0
bin	-0.033333333333333	0
bin	0	0
bin	0.033333333333333	0
bin	0.066666666666667	0
bin	0.1	0
bin	0.13333333333333	0
bin	0.16666666666667	0
bin	0.2	0
bin	0.23333333333333	0
bin	0.26666666666667	0
bin	0.3	0
bin	0.33333333333333	0
bin	0.36666666666667	0
bin	0.4	0
bin	0.43333333333333	0
bin	0.46666666666667	0
bin	0.5	0
scalar StarLAN.host[0].eth[0].queue.pauseQueue dropPk:count 0
attr interpolationmode none
attr source dropPkByQueue
attr title "dropped packets, count"
scalar StarLAN.host[0].eth[0].queue.pauseQueue dropPk:sum(packetBytes) 0
attr interpolationmode none
attr source dropPkByQueue
attr title "dropped packets, sum(packetBytes)"
scalar StarLAN.host[0].eth[0].queue.pauseQueue rcvdPk:count 0
attr interpolationmode none
attr title "received packets, count"
scalar StarLAN.host[0].eth[0].queue.pauseQueue rcvdPk:sum(packetBytes) 0
attr interpolationmode none
attr title "received packets, sum(packetBytes)"
scalar StarLAN.host[0].eth[0].queue.dataQueue queueLength:max 10
attr interpolationmode sample-hold
attr title "queue length, max"
scalar StarLAN.host[0].eth[0].queue.dataQueue queueLength:timeavg 0.46878293135445
attr interpolationmode sample-hold
attr title "queue length, timeavg"
statistic StarLAN.host[0].eth[0].queue.dataQueue queueingTime:histogram
field count 105813
field mean 6.6453126348009e-005
field stddev 7.4831260676421e-005
field min 0
field max 0.000664669713
field sum 7.0316046582619
field sqrsum 0.0010597894287695
attr interpolationmode none
attr title "queueing time, histogram"
bin	-inf	0
bin	-0.000168787254	0
bin	-0.0001462822868	0
bin	-0.0001237773196	0
bin	-0.0001012723524	0
bin	-7.87673852e-005	0
bin	-5.6262418e-005	0
bin	-3.37574508e-005	0
bin	-1.12524836e-005	42290
bin	1.12524836e-005	4311
bin	3.37574508e-005	4446
bin	5.6262418e-005	3911
bin	7.87673852e-005	27949
bin	0.0001012723524	4846
bin	0.0001237773196	4177
bin	0.0001462822868	3323
bin	0.000168787254	3613
bin	0.0001912922212	1994
bin	0.0002137971884	1407
bin	0.0002363021556	1000
bin	0.0002588071228	712
bin	0.00028131209	528
bin	0.0003038170572	375
bin	0.0003263220244	270
bin	0.0003488269916	199
bin	0.0003713319588	147
bin	0.000393836926	90
bin	0.0004163418932	72
bin	0.0004388468604	51
bin	0.0004613518276	35
bin	0.0004838567948	17
bin	0.000506361762	50
scalar StarLAN.host[0].eth[0].queue.dataQueue dropPk:count 7
attr interpolationmode none
attr source dropPkByQueue
attr title "dropped packets, count"
scalar StarLAN.host[0].eth[0].queue.dataQueue dropPk:sum(packetBytes) 3025
attr interpolationmode none
attr source dropPkByQueue
attr title "dropped packets, sum(packetBytes)"
scalar StarLAN.host[0].eth[0].queue.dataQueue rcvdPk:count 105822
attr interpolationmode none
attr title "received packets, count"
scalar StarLAN.host[0].eth[0].queue.dataQueue rcvdPk:sum(packetBytes) 75255412
attr interpolationmode none
attr title "received packets, sum(packetBytes)"
scalar StarLAN.host[0].eth[0].mac "simulated time" 20
scalar StarLAN.host[0].eth[0].mac full-duplex 1
scalar StarLAN.host[0].eth[0].mac "frames/sec sent" 7060.85
scalar StarLAN.host[0].eth[0].mac "frames/sec rcvd" 7063.25
scalar StarLAN.host[0].eth[0].mac "bits/sec sent" 40165785.2
scalar StarLAN.host[0].eth[0].mac "bits/sec rcvd" 40172140.8
scalar StarLAN.host[0].eth[0].mac "rx channel idle (%)" 59.3758112
scalar StarLAN.host[0].eth[0].mac "rx channel utilization (%)" 40.6241888
scalar StarLAN.host[0].eth[0].mac rxPkFromHL:count 105813
attr interpolationmode none
attr source rxPkFromHL
attr title "packet bytes from higher layer, count"
scalar StarLAN.host[0].eth[0].mac rxPkFromHL:sum(packetBytes) 75251162
attr interpolationmode none
attr source rxPkFromHL
attr title "packet bytes from higher layer, sum(packetBytes)"
scalar StarLAN.host[0].eth[0].mac rxPausePkUnits:count 0
attr interpolationmode none
attr title "pause units received, count"
scalar StarLAN.host[0].eth[0].mac rxPausePkUnits:sum 0
attr interpolationmode none
attr title "pause units received, sum"
scalar StarLAN.host[0].eth[0].mac txPausePkUnits:count 0
attr interpolationmode none
attr title "pause units sent, count"
scalar StarLAN.host[0].eth[0].mac txPausePkUnits:sum 0
attr interpolationmode none
attr title "pause units sent, sum"
scalar StarLAN.host[0].eth[0].mac txPk:count 105813
attr interpolationmode none
attr source txPk
attr title "packets transmitted, count"
scalar StarLAN.host[0].eth[0].mac txPk:sum(packetBytes) 75251071
attr interpolationmode none
attr source txPk
attr title "packets transmitted, sum(packetBytes)"
scalar StarLAN.host[0].eth[0].mac droppedPkNotForUs:count 0
attr interpolationmode none
attr source dropPkNotForUs
attr title "packets dropped/not for us, count"
scalar StarLAN.host[0].eth[0].mac droppedPkNotForUs:sum(packetBytes) 0
attr interpolationmode none
attr source dropPkNotForUs
attr title "packets dropped/not for us, sum(packetBytes)"
scalar StarLAN.host[0].eth[0].mac droppedPkBitError:count 0
attr interpolationmode none
attr source dropPkBitError
attr title "packets dropped/bit error, count"
scalar StarLAN.host[0].eth[0].mac droppedPkBitError:sum(packetBytes) 0
attr interpolationmode none
attr source dropPkBitError
attr title "packets dropped/bit error, sum(packetBytes)"
scalar StarLAN.host[0].eth[0].mac droppedPkIfaceDown:count 0
attr interpolationmode none
attr source dropPkIfaceDown
attr title "packets dropped/interface down, count"
scalar StarLAN.host[0].eth[0].mac droppedPkIfaceDown:sum(packetBytes) 0
attr interpolationmode none
attr source dropPkIfaceDown
attr title "packets dropped/interface down, sum(packetBytes)"
scalar StarLAN.host[0].eth[0].mac rxPkOk:count 105818
attr interpolationmode none
attr source rxPkOk
attr title "packets received OK, count"
scalar StarLAN.host[0].eth[0].mac rxPkOk:sum(packetBytes) 75255984
attr interpolationmode none
attr source rxPkOk
attr title "packets received OK, sum(packetBytes)"
scalar StarLAN.host[0].eth[0].mac passedUpPk:count 105818
attr interpolationmode none
attr source packetSentToUpper
attr title "packets passed to higher layer, count"
scalar StarLAN.host[0].eth[0].mac passedUpPk:sum(packetBytes) 75255984
attr interpolationmode none
attr source packetSentToUpper
attr title "packets passed to higher layer, sum(packetBytes)"
scalar StarLAN.host[0].eth[0].encap pauseSent:count 0
attr title "pause sent, count"
scalar StarLAN.host[0].eth[0].encap pauseSent:sum 0
attr title "pause sent, sum"
scalar StarLAN.host[0].eth[0].encap decapPk:count 105818
attr interpolationmode none
attr source decapPk
attr title "packets decapsulated, count"
scalar StarLAN.host[0].eth[0].encap decapPk:sum(packetBytes) 73328840
attr interpolationmode none
attr source decapPk
attr title "packets decapsulated, sum(packetBytes)"
scalar StarLAN.host[0].eth[0].encap encapPk:count 105822
attr interpolationmode none
attr source encapPk
attr title "packets encapsulated, count"
scalar StarLAN.host[0].eth[0].encap encapPk:sum(packetBytes) 73328167
attr interpolationmode none
attr source encapPk
attr title "packets encapsulated, sum(packetBytes)"
scalar StarLAN.host[0].pingApp[0] "Pings sent" 397
scalar StarLAN.host[0].pingApp[0] "ping loss rate (%)" 0
scalar StarLAN.host[0].pingApp[0] "ping out-of-order rate (%)" 0
scalar StarLAN.host[0].pingApp[0] pingRxSeq:count 303
attr interpolationmode none
attr title "ping rx seq, count"
scalar StarLAN.host[0].pingApp[0] pingTxSeq:count 303
attr interpolationmode none
attr title "ping tx seq, count"
scalar StarLAN.host[0].pingApp[0] numOutOfOrderArrivals:last nan
attr interpolationmode none
attr title "ping out-of-order arrivals, last"
scalar StarLAN.host[0].pingApp[0] numLost:last nan
attr interpolationmode none
attr title "pings lost, last"
scalar StarLAN.host[0].pingApp[0] rtt:mean 0.00053248382654982
attr interpolationmode none
attr title "ping round-trip time, mean"
attr unit s
scalar StarLAN.host[0].pingApp[1] "Pings sent" 384
scalar StarLAN.host[0].pingApp[1] "ping loss rate (%)" 0
scalar StarLAN.host[0].pingApp[1] "ping out-of-order rate (%)" 0
scalar StarLAN.host[0].pingApp[1] pingRxSeq:count 289
attr interpolationmode none
attr title "ping rx seq, count"
scalar StarLAN.host[0].pingApp[1] pingTxSeq:count 289
attr interpolationmode none
attr title "ping tx seq, count"
scalar StarLAN.host[0].pingApp[1] numOutOfOrderArrivals:last nan
attr interpolationmode none
attr title "ping out-of-order arrivals, last"
scalar StarLAN.host[0].pingApp[1] numLost:last nan
attr interpolationmode none
attr title "pings lost, last"
scalar StarLAN.host[0].pingApp[1] rtt:mean 0.00061319389413229
attr interpolationmode none
attr title "ping round-trip time, mean"
attr unit s
scalar StarLAN.host[0].pingApp[2] "Pings sent" 377
scalar StarLAN.host[0].pingApp[2] "ping loss rate (%)" 0
scalar StarLAN.host[0].pingApp[2] "ping out-of-order rate (%)" 0
scalar StarLAN.host[0].pingApp[2] pingRxSeq:count 288
attr interpolationmode none
attr title "ping rx seq, count"
scalar StarLAN.host[0].pingApp[2] pingTxSeq:count 288
attr interpolationmode none
attr title "ping tx seq, count"
scalar StarLAN.host[0].pingApp[2] numOutOfOrderArrivals:last nan
attr interpolationmode none
attr title "ping out-of-order arrivals, last"
scalar StarLAN.host[0].pingApp[2] numLost:last nan
attr interpolationmode none
attr title "pings lost, last"
scalar StarLAN.host[0].pingApp[2] rtt:mean 0.0004125572120428
attr interpolationmode none
attr title "ping round-trip time, mean"
attr unit s
scalar StarLAN.host[0].pingApp[3] "Pings sent" 360
scalar StarLAN.host[0].pingApp[3] "ping loss rate (%)" 0
scalar StarLAN.host[0].pingApp[3] "ping out-of-order rate (%)" 0.27777777777778
scalar StarLAN.host[0].pingApp[3] pingRxSeq:count 273
attr interpolationmode none
attr title "ping rx seq, count"
scalar StarLAN.host[0].pingApp[3] pingTxSeq:count 273
attr interpolationmode none
attr title "ping tx seq, count"
scalar StarLAN.host[0].pingApp[3] numOutOfOrderArrivals:last 1
attr interpolationmode none
attr title "ping out-of-order arrivals, last"
scalar StarLAN.host[0].pingApp[3] numLost:last 0
attr interpolationmode none
attr title "pings lost, last"
scalar StarLAN.host[0].pingApp[3] rtt:mean 0.0004505796964557
attr interpolationmode none
attr title "ping round-trip time, mean"
attr unit s
scalar StarLAN.host[0].pingApp[4] "Pings sent" 395
scalar StarLAN.host[0].pingApp[4] "ping loss rate (%)" 0
scalar StarLAN.host[0].pingApp[4] "ping out-of-order rate (%)" 0
scalar StarLAN.host[0].pingApp[4] pingRxSeq:count 302
attr interpolationmode none
attr title "ping rx seq, count"
scalar StarLAN.host[0].pingApp[4] pingTxSeq:count 302
attr interpolationmode none
attr title "ping tx seq, count"
scalar StarLAN.host[0].pingApp[4] numOutOfOrderArrivals:last nan
attr interpolationmode none
attr title "ping out-of-order arrivals, last"
scalar StarLAN.host[0].pingApp[4] numLost:last nan
attr interpolationmode none
attr title "pings lost, last"
scalar StarLAN.host[0].pingApp[4] rtt:mean 0.0003484787868609
attr interpolationmode none
attr title "ping round-trip time, mean"
attr unit s
scalar StarLAN.host[0].pingApp[5] "Pings sent" 394
scalar StarLAN.host[0].pingApp[5] "ping loss rate (%)" 0
scalar StarLAN.host[0].pingApp[5] "ping out-of-order rate (%)" 0
scalar StarLAN.host[0].pingApp[5] pingRxSeq:count 294
attr interpolationmode none
attr title "ping rx seq, count"
scalar StarLAN.host[0].pingApp[5] pingTxSeq:count 294
attr interpolationmode none
attr title "ping tx seq, count"
scalar StarLAN.host[0].pingApp[5] numOutOfOrderArrivals:last nan
attr interpolationmode none
attr title "ping out-of-order arrivals, last"
scalar StarLAN.host[0].pingApp[5] numLost:last nan
attr interpolationmode none
attr title "pings lost, last"
scalar StarLAN.host[0].pingApp[5] rtt:mean 0.00053891092307224
attr interpolationmode none
attr title "ping round-trip time, mean"
attr unit s
scalar StarLAN.host[0].pingApp[6] "Pings sent" 384
scalar StarLAN.host[0].pingApp[6] "ping loss rate (%)" 0
scalar StarLAN.host[0].pingApp[6] "ping out-of-order rate (%)" 0
scalar StarLAN.host[0].pingApp[6] pingRxSeq:count 291
attr interpolationmode none
attr title "ping rx seq, count"
scalar StarLAN.host[0].pingApp[6] pingTxSeq:count 291
attr interpolationmode none
attr title "ping tx seq, count"
scalar StarLAN.host[0].pingApp[6] numOutOfOrderArrivals:last nan
attr interpolationmode none
attr title "ping out-of-order arrivals, last"
scalar StarLAN.host[0].pingApp[6] numLost:last nan
attr interpolationmode none
attr title "pings lost, last"
scalar StarLAN.host[0].pingApp[6] rtt:mean 0.00038275868590347
attr interpolationmode none
attr title "ping round-trip time, mean"
attr unit s
scalar StarLAN.host[0].pingApp[7] "Pings sent" 405
scalar StarLAN.host[0].pingApp[7] "ping loss rate (%)" 0
scalar StarLAN.host[0].pingApp[7] "ping out-of-order rate (%)" 0
scalar StarLAN.host[0].pingApp[7] pingRxSeq:count 306
attr interpolationmode none
attr title "ping rx seq, count"
scalar StarLAN.host[0].pingApp[7] pingTxSeq:count 306
attr interpolationmode none
attr title "ping tx seq, count"
scalar StarLAN.host[0].pingApp[7] numOutOfOrderArrivals:last nan
attr interpolationmode none
attr title "ping out-of-order arrivals, last"
scalar StarLAN.host[0].pingApp[7] numLost:last nan
attr interpolationmode none
attr title "pings lost, last"
scalar StarLAN.host[0].pingApp[7] rtt:mean 0.00045799438492086
attr interpolationmode none
attr title "ping round-trip time, mean"
attr unit s
scalar StarLAN.host[0].pingApp[8] "Pings sent" 404
scalar StarLAN.host[0].pingApp[8] "ping loss rate (%)" 0
scalar StarLAN.host[0].pingApp[8] "ping out-of-order rate (%)" 0
scalar StarLAN.host[0].pingApp[8] pingRxSeq:count 303
attr interpolationmode none
attr title "ping rx seq, count"
scalar StarLAN.host[0].pingApp[8] pingTxSeq:count 303
attr interpolationmode none
attr title "ping tx seq, count"
scalar StarLAN.host[0].pingApp[8] numOutOfOrderArrivals:last nan
attr interpolationmode none
attr title "ping out-of-order arrivals, last"
scalar StarLAN.host[0].pingApp[8] numLost:last nan
attr interpolationmode none
attr title "pings lost, last"
scalar StarLAN.host[0].pingApp[8] rtt:mean 0.00019214843943273
attr interpolationmode none
attr title "ping round-trip time, mean"
attr unit s
scalar StarLAN.host[0].pingApp[9] "Pings sent" 394
scalar StarLAN.host[0].pingApp[9] "ping loss rate (%)" 0
scalar StarLAN.host[0].pingApp[9] "ping out-of-order rate (%)" 0
scalar StarLAN.host[0].pingApp[9] pingRxSeq:count 298
attr interpolationmode none
attr title "ping rx seq, count"
scalar StarLAN.host[0].pingApp[9] pingTxSeq:count 298
attr interpolationmode none
attr title "ping tx seq, count"
scalar StarLAN.host[0].pingApp[9] numOutOfOrderArrivals:last nan
attr interpolationmode none
attr title "ping out-of-order arrivals, last"
scalar StarLAN.host[0].pingApp[9] numLost:last nan
attr interpolationmode none
attr title "pings lost, last"
scalar StarLAN.host[0].pingApp[9] rtt:mean 0.00056937311693091
attr interpolationmode none
attr title "ping round-trip time, mean"
attr unit s
scalar StarLAN.host[0].pingApp[10] "Pings sent" 375
scalar StarLAN.host[0].pingApp[10] "ping loss rate (%)" 0
scalar StarLAN.host[0].pingApp[10] "ping out-of-order rate (%)" 0
scalar StarLAN.host[0].pingApp[10] pingRxSeq:count 279
attr interpolationmode none
attr title "ping rx seq, count"
scalar StarLAN.host[0].pingApp[10] pingTxSeq:count 279
attr interpolationmode none
attr title "ping tx seq, count"
scalar StarLAN.host[0].pingApp[10] numOutOfOrderArrivals:last nan
attr interpolationmode none
attr title "ping out-of-order arrivals, last"
scalar StarLAN.host[0].pingApp[10] numLost:last nan
attr interpolationmode none
attr title "pings lost, last"
scalar StarLAN.host[0].pingApp[10] rtt:mean 0.00043201064638
attr interpolationmode none
attr title "ping round-trip time, mean"
attr unit s
scalar StarLAN.host[0].pingApp[11] "Pings sent" 382
scalar StarLAN.host[0].pingApp[11] "ping loss rate (%)" 0
scalar StarLAN.host[0].pingApp[11] "ping out-of-order rate (%)" 0
scalar StarLAN.host[0].pingApp[11] pingRxSeq:count 292
attr interpolationmode none
attr title "ping rx seq, count"
scalar StarLAN.host[0].pingApp[11] pingTxSeq:count 292
attr interpolationmode none
attr title "ping tx seq, count"
scalar StarLAN.host[0].pingApp[11] numOutOfOrderArrivals:last nan
attr interpolationmode none
attr title "ping out-of-order arrivals, last"
scalar StarLAN.host[0].pingApp[11] numLost:last nan
attr interpolationmode none
attr title "pings lost, last"
scalar StarLAN.host[0].pingApp[11] rtt:mean 0.00056537402964151
attr interpolationmode none
attr title "ping round-trip time, mean"
attr unit s
scalar StarLAN.host[0].pingApp[12] "Pings sent" 381
scalar StarLAN.host[0].pingApp[12] "ping loss rate (%)" 0
scalar StarLAN.host[0].pingApp[12] "ping out-of-order rate (%)" 0
scalar StarLAN.host[0].pingApp[12] pingRxSeq:count 292
attr interpolationmode none
attr title "ping rx seq, count"
scalar StarLAN.host[0].pingApp[12] pingTxSeq:count 292
attr interpolationmode none
attr title "ping tx seq, count"
scalar StarLAN.host[0].pingApp[12] numOutOfOrderArrivals:last nan
attr interpolationmode none
attr title "ping out-of-order arrivals, last"
scalar StarLAN.host[0].pingApp[12] numLost:last nan
attr interpolationmode none
attr title "pings lost, last"
scalar StarLAN.host[0].pingApp[12] rtt:mean 0.00039713100826616
attr interpolationmode none
attr title "ping round-trip time, mean"
attr unit s
scalar StarLAN.host[0].pingApp[13] "Pings sent" 388
scalar StarLAN.host[0].pingApp[13] "ping loss rate (%)" 0
scalar StarLAN.host[0].pingApp[13] "ping out-of-order rate (%)" 0
scalar StarLAN.host[0].pingApp[13] pingRxSeq:count 292
attr interpolationmode none
attr title "ping rx seq, count"
scalar StarLAN.host[0].pingApp[13] pingTxSeq:count 292
attr interpolationmode none
attr title "ping tx seq, count"
scalar StarLAN.host[0].pingApp[13] numOutOfOrderArrivals:last nan
attr interpolationmode none
attr title "ping out-of-order arrivals, last"
scalar StarLAN.host[0].pingApp[13] numLost:last nan
attr interpolationmode none
attr title "pings lost, last"
scalar StarLAN.host[0].pingApp[13] rtt:mean 0.00049179386381439
attr interpolationmode none
attr title "ping round-trip time, mean"
attr unit s
scalar StarLAN.host[0].pingApp[14] "Pings sent" 388
scalar StarLAN.host[0].pingApp[14] "ping loss rate (%)" 0
scalar StarLAN.host[0].pingApp[14] "ping out-of-order rate (%)" 0
scalar StarLAN.host[0].pingApp[14] pingRxSeq:count 287
attr interpolationmode none
attr title "ping rx seq, count"
scalar StarLAN.host[0].pingApp[14] pingTxSeq:count 287
attr interpolationmode none
attr title "ping tx seq, count"
scalar StarLAN.host[0].pingApp[14] numOutOfOrderArrivals:last nan
attr interpolationmode none
attr title "ping out-of-order arrivals, last"
scalar StarLAN.host[0].pingApp[14] numLost:last nan
attr interpolationmode none
attr title "pings lost, last"
scalar StarLAN.host[0].pingApp[14] rtt:mean 0.00038699623576471
attr interpolationmode none
attr title "ping round-trip time, mean"
attr unit s
scalar StarLAN.host[0].pingApp[15] "Pings sent" 389
scalar StarLAN.host[0].pingApp[15] "ping loss rate (%)" 0
scalar StarLAN.host[0].pingApp[15] "ping out-of-order rate (%)" 0
scalar StarLAN.host[0].pingApp[15] pingRxSeq:count 287
attr interpolationmode none
attr title "ping rx seq, count"
scalar StarLAN.host[0].pingApp[15] pingTxSeq:count 287
attr interpolationmode none
attr title "ping tx seq, count"
scalar StarLAN.host[0].pingApp[15] numOutOfOrderArrivals:last nan
attr interpolationmode none
attr title "ping out-of-order arrivals, last"
scalar StarLAN.host[0].pingApp[15] numLost:last nan
attr interpolationmode none
attr title "pings lost, last"
scalar StarLAN.host[0].pingApp[15] rtt:mean 0.00036201689815909
attr interpolationmode none
attr title "ping round-trip time, mean"
attr unit s
scalar StarLAN.host[0].pingApp[16] "Pings sent" 384
scalar StarLAN.host[0].pingApp[16] "ping loss rate (%)" 0.26041666666667
scalar StarLAN.host[0].pingApp[16] "ping out-of-order rate (%)" 0
scalar StarLAN.host[0].pingApp[16] pingRxSeq:count 297
attr interpolationmode none
attr title "ping rx seq, count"
scalar StarLAN.host[0].pingApp[16] pingTxSeq:count 298
attr interpolationmode none
attr title "ping tx seq, count"
scalar StarLAN.host[0].pingApp[16] numOutOfOrderArrivals:last nan
attr interpolationmode none
attr title "ping out-of-order arrivals, last"
scalar StarLAN.host[0].pingApp[16] numLost:last 1
attr interpolationmode none
attr title "pings lost, last"
scalar StarLAN.host[0].pingApp[16] rtt:mean 0.00035683835918148
attr interpolationmode none
attr title "ping round-trip time, mean"
attr unit s
scalar StarLAN.host[0].pingApp[17] "Pings sent" 382
scalar StarLAN.host[0].pingApp[17] "ping loss rate (%)" 0
scalar StarLAN.host[0].pingApp[17] "ping out-of-order rate (%)" 0
scalar StarLAN.host[0].pingApp[17] pingRxSeq:count 289
attr interpolationmode none
attr title "ping rx seq, count"
scalar StarLAN.host[0].pingApp[17] pingTxSeq:count 289
attr interpolationmode none
attr title "ping tx seq, count"
scalar StarLAN.host[0].pingApp[17] numOutOfOrderArrivals:last nan
attr interpolationmode none
attr title "ping out-of-order arrivals, last"
scalar StarLAN.host[0].pingApp[17] numLost:last nan
attr interpolationmode none
attr title "pings lost, last"
scalar StarLAN.host[0].pingApp[17] rtt:mean 0.00037003498025869
attr interpolationmode none
attr title "ping round-trip time, mean"
attr unit s
scalar StarLAN.host[0].pingApp[18] "Pings sent" 381
scalar StarLAN.host[0].pingApp[18] "ping loss rate (%)" 0
scalar StarLAN.host[0].pingApp[18] "ping out-of-order rate (%)" 0
scalar StarLAN.host[0].pingApp[18] pingRxSeq:count 293
attr interpolationmode none
attr title "ping rx seq, count"
scalar StarLAN.host[0].pingApp[18] pingTxSeq:count 293
attr interpolationmode none
attr title "ping tx seq, count"
scalar StarLAN.host[0].pingApp[18] numOutOfOrderArrivals:last nan
attr interpolationmode none
attr title "ping out-of-order arrivals, last"
scalar StarLAN.host[0].pingApp[18] numLost:last nan
attr interpolationmode none
attr title "pings lost, last"
scalar StarLAN.host[0].pingApp[18] rtt:mean 0.0006853179538513
attr interpolationmode none
attr title "ping round-trip time, mean"
attr unit s
scalar StarLAN.host[0].pingApp[19] "Pings sent" 394
scalar StarLAN.host[0].pingApp[19] "ping loss rate (%)" 0
scalar StarLAN.host[0].pingApp[19] "ping out-of-order rate (%)" 0
scalar StarLAN.host[0].pingApp[19] pingRxSeq:count 307
attr interpolationmode none
attr title "ping rx seq, count"
scalar StarLAN.host[0].pingApp[19] pingTxSeq:count 307
attr interpolationmode none
attr title "ping tx seq, count"
scalar StarLAN.host[0].pingApp[19] numOutOfOrderArrivals:last nan
attr interpolationmode none
attr title "ping out-of-order arrivals, last"
scalar StarLAN.host[0].pingApp[19] numLost:last nan
attr interpolationmode none
attr title "pings lost, last"
scalar StarLAN.host[0].pingApp[19] rtt:mean 0.00052118351652222
attr interpolationmode none
attr title "ping round-trip time, mean"
attr unit s
scalar StarLAN.host[0].pingApp[20] "Pings sent" 387
scalar StarLAN.host[0].pingApp[20] "ping loss rate (%)" 0
scalar StarLAN.host[0].pingApp[20] "ping out-of-order rate (%)" 0
scalar StarLAN.host[0].pingApp[20] pingRxSeq:count 296
attr interpolationmode none
attr title "ping rx seq, count"
scalar StarLAN.host[0].pingApp[20] pingTxSeq:count 296
attr interpolationmode none
attr title "ping tx seq, count"
scalar StarLAN.host[0].pingApp[20] numOutOfOrderArrivals:last nan
attr interpolationmode none
attr title "ping out-of-order arrivals, last"
scalar StarLAN.host[0].pingApp[20] numLost:last nan
attr interpolationmode none
attr title "pings lost, last"
scalar StarLAN.host[0].pingApp[20] rtt:mean 0.00052308272353933
attr interpolationmode none
attr title "ping round-trip time, mean"
attr unit s
scalar StarLAN.host[0].pingApp[21] "Pings sent" 385
scalar StarLAN.host[0].pingApp[21] "ping loss rate (%)" 0
scalar StarLAN.host[0].pingApp[21] "ping out-of-order rate (%)" 0
scalar StarLAN.host[0].pingApp[21] pingRxSeq:count 287
attr interpolationmode none
attr title "ping rx seq, count"
scalar StarLAN.host[0].pingApp[21] pingTxSeq:count 287
attr interpolationmode none
attr title "ping tx seq, count"
scalar StarLAN.host[0].pingApp[21] numOutOfOrderArrivals:last nan
attr interpolationmode none
attr title "ping out-of-order arrivals, last"
scalar StarLAN.host[0].pingApp[21] numLost:last nan
attr interpolationmode none
attr title "pings lost, last"
scalar StarLAN.host[0].pingApp[21] rtt:mean 0.00042344924335606
attr interpolationmode none
attr title "ping round-trip time, mean"
attr unit s
scalar StarLAN.host[0].pingApp[22] "Pings sent" 389
scalar StarLAN.host[0].pingApp[22] "ping loss rate (%)" 0.25706940874036
scalar StarLAN.host[0].pingApp[22] "ping out-of-order rate (%)" 0
scalar StarLAN.host[0].pingApp[22] pingRxSeq:count 296
attr interpolationmode none
attr title "ping rx seq, count"
scalar StarLAN.host[0].pingApp[22] pingTxSeq:count 296
attr interpolationmode none
attr title "ping tx seq, count"
scalar StarLAN.host[0].pingApp[22] numOutOfOrderArrivals:last nan
attr interpolationmode none
attr title "ping out-of-order arrivals, last"
scalar StarLAN.host[0].pingApp[22] numLost:last nan
attr interpolationmode none
attr title "pings lost, last"
scalar StarLAN.host[0].pingApp[22] rtt:mean 0.00052406512898077
attr interpolationmode none
attr title "ping round-trip time, mean"
attr unit s
scalar StarLAN.host[0].pingApp[23] "Pings sent" 384
scalar StarLAN.host[0].pingApp[23] "ping loss rate (%)" 0
scalar StarLAN.host[0].pingApp[23] "ping out-of-order rate (%)" 0
scalar StarLAN.host[0].pingApp[23] pingRxSeq:count 288
attr interpolationmode none
attr title "ping rx seq, count"
scalar StarLAN.host[0].pingApp[23] pingTxSeq:count 288
attr interpolationmode none
attr title "ping tx seq, count"
scalar StarLAN.host[0].pingApp[23] numOutOfOrderArrivals:last nan
attr interpolationmode none
attr title "ping out-of-order arrivals, last"
scalar StarLAN.host[0].pingApp[23] numLost:last nan
attr interpolationmode none
attr title "pings lost, last"
scalar StarLAN.host[0].pingApp[23] rtt:mean 0.000227555530984
attr interpolationmode none
attr title "ping round-trip time, mean"
attr unit s
scalar StarLAN.host[0].pingApp[24] "Pings sent" 382
scalar StarLAN.host[0].pingApp[24] "ping loss rate (%)" 0
scalar StarLAN.host[0].pingApp[24] "ping out-of-order rate (%)" 0
scalar StarLAN.host[0].pingApp[24] pingRxSeq:count 293
attr interpolationmode none
attr title "ping rx seq, count"
scalar StarLAN.host[0].pingApp[24] pingTxSeq:count 293
attr interpolationmode none
attr title "ping tx seq, count"
scalar StarLAN.host[0].pingApp[24] numOutOfOrderArrivals:last nan
attr interpolationmode none
attr title "ping out-of-order arrivals, last"
scalar StarLAN.host[0].pingApp[24] numLost:last nan
attr interpolationmode none
attr title "pings lost, last"
scalar StarLAN.host[0].pingApp[24] rtt:mean 0.00056152132667407
attr interpolationmode none
attr title "ping round-trip time, mean"
attr unit s
scalar StarLAN.host[0].pingApp[25] "Pings sent" 386
scalar StarLAN.host[0].pingApp[25] "ping loss rate (%)" 0.25906735751295
scalar StarLAN.host[0].pingApp[25] "ping out-of-order rate (%)" 0
scalar StarLAN.host[0].pingApp[25] pingRxSeq:count 289
attr interpolationmode none
attr title "ping rx seq, count"
scalar StarLAN.host[0].pingApp[25] pingTxSeq:count 289
attr interpolationmode none
attr title "ping tx seq, count"
scalar StarLAN.host[0].pingApp[25] numOutOfOrderArrivals:last nan
attr interpolationmode none
attr title "ping out-of-order arrivals, last"
scalar StarLAN.host[0].pingApp[25] numLost:last nan
attr interpolationmode none
attr title "pings lost, last"
scalar StarLAN.host[0].pingApp[25] rtt:mean 0.00051615049263707
attr interpolationmode none
attr title "ping round-trip time, mean"
attr unit s
scalar StarLAN.host[0].pingApp[26] "Pings sent" 376
scalar StarLAN.host[0].pingApp[26] "ping loss rate (%)" 0
scalar StarLAN.host[0].pingApp[26] "ping out-of-order rate (%)" 0.26595744680851
scalar StarLAN.host[0].pingApp[26] pingRxSeq:count 283
attr interpolationmode none
attr title "ping rx seq, count"
scalar StarLAN.host[0].pingApp[26] pingTxSeq:count 283
attr interpolationmode none
attr title "ping tx seq, count"
scalar StarLAN.host[0].pingApp[26] numOutOfOrderArrivals:last 1
attr interpolationmode none
attr title "ping out-of-order arrivals, last"
scalar StarLAN.host[0].pingApp[26] numLost:last 0
attr interpolationmode none
attr title "pings lost, last"
scalar StarLAN.host[0].pingApp[26] rtt:mean 0.00018304862371042
attr interpolationmode none
attr title "ping round-trip time, mean"
attr unit s
scalar StarLAN.host[0].pingApp[27] "Pings sent" 384
scalar StarLAN.host[0].pingApp[27] "ping loss rate (%)" 0
scalar StarLAN.host[0].pingApp[27] "ping out-of-order rate (%)" 0
scalar StarLAN.host[0].pingApp[27] pingRxSeq:count 298
attr interpolationmode none
attr title "ping rx seq, count"
scalar StarLAN.host[0].pingApp[27] pingTxSeq:count 298
attr interpolationmode none
attr title "ping tx seq, count"
scalar StarLAN.host[0].pingApp[27] numOutOfOrderArrivals:last nan
attr interpolationmode none
attr title "ping out-of-order arrivals, last"
scalar StarLAN.host[0].pingApp[27] numLost:last nan
attr interpolationmode none
attr title "pings lost, last"
scalar StarLAN.host[0].pingApp[27] rtt:mean 0.00048313704362977
attr interpolationmode none
attr title "ping round-trip time, mean"
attr unit s
scalar StarLAN.host[0].pingApp[28] "Pings sent" 365
scalar StarLAN.host[0].pingApp[28] "ping loss rate (%)" 0
scalar StarLAN.host[0].pingApp[28] "ping out-of-order rate (%)" 0
scalar StarLAN.host[0].pingApp[28] pingRxSeq:count 279
attr interpolationmode none
attr title "ping rx seq, count"
scalar StarLAN.host[0].pingApp[28] pingTxSeq:count 279
attr interpolationmode none
attr title "ping tx seq, count"
scalar StarLAN.host[0].pingApp[28] numOutOfOrderArrivals:last nan
attr interpolationmode none
attr title "ping out-of-order arrivals, last"
scalar StarLAN.host[0].pingApp[28] numLost:last nan
attr interpolationmode none
attr title "pings lost, last"
scalar StarLAN.host[0].pingApp[28] rtt:mean 0.00050708869942912
attr interpolationmode none
attr title "ping round-trip time, mean"
attr unit s
scalar StarLAN.host[0].pingApp[29] "Pings sent" 386
scalar StarLAN.host[0].pingApp[29] "ping loss rate (%)" 0
scalar StarLAN.host[0].pingApp[29] "ping out-of-order rate (%)" 0
scalar StarLAN.host[0].pingApp[29] pingRxSeq:count 294
attr interpolationmode none
attr title "ping rx seq, count"
scalar StarLAN.host[0].pingApp[29] pingTxSeq:count 294
attr interpolationmode none
attr title "ping tx seq, count"
scalar StarLAN.host[0].pingApp[29] numOutOfOrderArrivals:last nan
attr interpolationmode none
attr title "ping out-of-order arrivals, last"
scalar StarLAN.host[0].pingApp[29] numLost:last nan
attr interpolationmode none
attr title "pings lost, last"
scalar StarLAN.host[0].pingApp[29] rtt:mean 0.00039837447525188
attr interpolationmode none
attr title "ping round-trip time, mean"
attr unit s
scalar StarLAN.host[0].pingApp[30] "Pings sent" 398
scalar StarLAN.host[0].pingApp[30] "ping loss rate (%)" 0
scalar StarLAN.host[0].pingApp[30] "ping out-of-order rate (%)" 0
scalar StarLAN.host[0].pingApp[30] pingRxSeq:count 305
attr interpolationmode none
attr title "ping rx seq, count"
scalar StarLAN.host[0].pingApp[30] pingTxSeq:count 305
attr interpolationmode none
attr title "ping tx seq, count"
scalar StarLAN.host[0].pingApp[30] numOutOfOrderArrivals:last nan
attr interpolationmode none
attr title "ping out-of-order arrivals, last"
scalar StarLAN.host[0].pingApp[30] numLost:last nan
attr interpolationmode none
attr title "pings lost, last"
scalar StarLAN.host[0].pingApp[30] rtt:mean 0.00023477146258571
attr interpolationmode none
attr title "ping round-trip time, mean"
attr unit s
scalar StarLAN.host[0].pingApp[31] "Pings sent" 374
scalar StarLAN.host[0].pingApp[31] "ping loss rate (%)" 0
scalar StarLAN.host[0].pingApp[31] "ping out-of-order rate (%)" 0
scalar StarLAN.host[0].pingApp[31] pingRxSeq:count 282
attr interpolationmode none
attr title "ping rx seq, count"
scalar StarLAN.host[0].pingApp[31] pingTxSeq:count 282
attr interpolationmode none
attr title "ping tx seq, count"
scalar StarLAN.host[0].pingApp[31] numOutOfOrderArrivals:last nan
attr interpolationmode none
attr title "ping out-of-order arrivals, last"
scalar StarLAN.host[0].pingApp[31] numLost:last nan
attr interpolationmode none
attr title "pings lost, last"
scalar StarLAN.host[0].pingApp[31] rtt:mean 0.00036364138942798
attr interpolationmode none
attr title "ping round-trip time, mean"
attr unit s
scalar StarLAN.host[0].pingApp[32] "Pings sent" 376
scalar StarLAN.host[0].pingApp[32] "ping loss rate (%)" 0
scalar StarLAN.host[0].pingApp[32] "ping out-of-order rate (%)" 0
scalar StarLAN.host[0].pingApp[32] pingRxSeq:count 291
attr interpolationmode none
attr title "ping rx seq, count"
scalar StarLAN.host[0].pingApp[32] pingTxSeq:count 291
attr interpolationmode none
attr title "ping tx seq, count"
scalar StarLAN.host[0].pingApp[32] numOutOfOrderArrivals:last nan
attr interpolationmode none
attr title "ping out-of-order arrivals, last"
scalar StarLAN.host[0].pingApp[32] numLost:last nan
attr interpolationmode none
attr title "pings lost, last"
scalar StarLAN.host[0].pingApp[32] rtt:mean 0.00049267420296617
attr interpolationmode none
attr title "ping round-trip time, mean"
attr unit s
scalar StarLAN.host[0].pingApp[33] "Pings sent" 389
scalar StarLAN.host[0].pingApp[33] "ping loss rate (%)" 0
scalar StarLAN.host[0].pingApp[33] "ping out-of-order rate (%)" 0
scalar StarLAN.host[0].pingApp[33] pingRxSeq:count 294
attr interpolationmode none
attr title "ping rx seq, count"
scalar StarLAN.host[0].pingApp[33] pingTxSeq:count 294
attr interpolationmode none
attr title "ping tx seq, count"
scalar StarLAN.host[0].pingApp[33] numOutOfOrderArrivals:last nan
attr interpolationmode none
attr title "ping out-of-order arrivals, last"
scalar StarLAN.host[0].pingApp[33] numLost:last nan
attr interpolationmode none
attr title "pings lost, last"
scalar StarLAN.host[0].pingApp[33] rtt:mean 0.0003722719892278
attr interpolationmode none
attr title "ping round-trip time, mean"
attr unit s
scalar StarLAN.host[0].pingApp[34] "Pings sent" 388
scalar StarLAN.host[0].pingApp[34] "ping loss rate (%)" 0
scalar StarLAN.host[0].pingApp[34] "ping out-of-order rate (%)" 0
scalar StarLAN.host[0].pingApp[34] pingRxSeq:count 298
attr interpolationmode none
attr title "ping rx seq, count"
scalar StarLAN.host[0].pingApp[34] pingTxSeq:count 298
attr interpolationmode none
attr title "ping tx seq, count"
scalar StarLAN.host[0].pingApp[34] numOutOfOrderArrivals:last nan
attr interpolationmode none
attr title "ping out-of-order arrivals, last"
scalar StarLAN.host[0].pingApp[34] numLost:last nan
attr interpolationmode none
attr title "pings lost, last"
scalar StarLAN.host[0].pingApp[34] rtt:mean 0.00058343675528185
attr interpolationmode none
attr title "ping round-trip time, mean"
attr unit s
scalar StarLAN.host[0].pingApp[35] "Pings sent" 377
scalar StarLAN.host[0].pingApp[35] "ping loss rate (%)" 0
scalar StarLAN.host[0].pingApp[35] "ping out-of-order rate (%)" 0
scalar StarLAN.host[0].pingApp[35] pingRxSeq:count 288
attr interpolationmode none
attr title "ping rx seq, count"
scalar StarLAN.host[0].pingApp[35] pingTxSeq:count 288
attr interpolationmode none
attr title "ping tx seq, count"
scalar StarLAN.host[0].pingApp[35] numOutOfOrderArrivals:last nan
attr interpolationmode none
attr title "ping out-of-order arrivals, last"
scalar StarLAN.host[0].pingApp[35] numLost:last nan
attr interpolationmode none
attr title "pings lost, last"
scalar StarLAN.host[0].pingApp[35] rtt:mean 0.00036514964228629
attr interpolationmode none
attr title "ping round-trip time, mean"
attr unit s
scalar StarLAN.host[0].pingApp[36] "Pings sent" 377
scalar StarLAN.host[0].pingApp[36] "ping loss rate (%)" 0
scalar StarLAN.host[0].pingApp[36] "ping out-of-order rate (%)" 0
scalar StarLAN.host[0].pingApp[36] pingRxSeq:count 296
attr interpolationmode none
attr title "ping rx seq, count"
scalar StarLAN.host[0].pingApp[36] pingTxSeq:count 296
attr interpolationmode none
attr title "ping tx seq, count"
scalar StarLAN.host[0].pingApp[36] numOutOfOrderArrivals:last nan
attr interpolationmode none
attr title "ping out-of-order arrivals, last"
scalar StarLAN.host[0].pingApp[36] numLost:last nan
attr interpolationmode none
attr title "pings lost, last"
scalar StarLAN.host[0].pingApp[36] rtt:mean 0.00065534176367669
attr interpolationmode none
attr title "ping round-trip time, mean"
attr unit s
scalar StarLAN.host[0].pingApp[37] "Pings sent" 402
scalar StarLAN.host[0].pingApp[37] "ping loss rate (%)" 0
scalar StarLAN.host[0].pingApp[37] "ping out-of-order rate (%)" 0
scalar StarLAN.host[0].pingApp[37] pingRxSeq:count 307
attr interpolationmode none
attr title "ping rx seq, count"
scalar StarLAN.host[0].pingApp[37] pingTxSeq:count 307
attr interpolationmode none
attr title "ping tx seq, count"
scalar StarLAN.host[0].pingApp[37] numOutOfOrderArrivals:last nan
attr interpolationmode none
attr title "ping out-of-order arrivals, last"
scalar StarLAN.host[0].pingApp[37] numLost:last nan
attr interpolationmode none
attr title "pings lost, last"
scalar StarLAN.host[0].pingApp[37] rtt:mean 0.00045249746932963
attr interpolationmode none
attr title "ping round-trip time, mean"
attr unit s
scalar StarLAN.host[0].pingApp[38] "Pings sent" 370
scalar StarLAN.host[0].pingApp[38] "ping loss rate (%)" 0
scalar StarLAN.host[0].pingApp[38] "ping out-of-order rate (%)" 0
scalar StarLAN.host[0].pingApp[38] pingRxSeq:count 280
attr interpolationmode none
attr title "ping rx seq, count"
scalar StarLAN.host[0].pingApp[38] pingTxSeq:count 280
attr interpolationmode none
attr title "ping tx seq, count"
scalar StarLAN.host[0].pingApp[38] numOutOfOrderArrivals:last nan
attr interpolationmode none
attr title "ping out-of-order arrivals, last"
scalar StarLAN.host[0].pingApp[38] numLost:last nan
attr interpolationmode none
attr title "pings lost, last"
scalar StarLAN.host[0].pingApp[38] rtt:mean 0.00053911187592149
attr interpolationmode none
attr title "ping round-trip time, mean"
attr unit s
scalar StarLAN.host[0].pingApp[39] "Pings sent" 384
scalar StarLAN.host[0].pingApp[39] "ping loss rate (%)" 0
scalar StarLAN.host[0].pingApp[39] "ping out-of-order rate (%)" 0
scalar StarLAN.host[0].pingApp[39] pingRxSeq:count 292
attr interpolationmode none
attr title "ping rx seq, count"
scalar StarLAN.host[0].pingApp[39] pingTxSeq:count 292
attr interpolationmode none
attr title "ping tx seq, count"
scalar StarLAN.host[0].pingApp[39] numOutOfOrderArrivals:last nan
attr interpolationmode none
attr title "ping out-of-order arrivals, last"
scalar StarLAN.host[0].pingApp[39] numLost:last nan
attr interpolationmode none
attr title "pings lost, last"
scalar StarLAN.host[0].pingApp[39] rtt:mean 0.00057560558821622
attr interpolationmode none
attr title "ping round-trip time, mean"
attr unit s
scalar StarLAN.host[0].pingApp[40] "Pings sent" 379
scalar StarLAN.host[0].pingApp[40] "ping loss rate (%)" 0
scalar StarLAN.host[0].pingApp[40] "ping out-of-order rate (%)" 0
scalar StarLAN.host[0].pingApp[40] pingRxSeq:count 288
attr interpolationmode none
attr title "ping rx seq, count"
scalar StarLAN.host[0].pingApp[40] pingTxSeq:count 288
attr interpolationmode none
attr title "ping tx seq, count"
scalar StarLAN.host[0].pingApp[40] numOutOfOrderArrivals:last nan
attr interpolationmode none
attr title "ping out-of-order arrivals, last"
scalar StarLAN.host[0].pingApp[40] numLost:last nan
attr interpolationmode none
attr title "pings lost, last"
scalar StarLAN.host[0].pingApp[40] rtt:mean 0.0002571969439921
attr interpolationmode none
attr title "ping round-trip time, mean"
attr unit s
scalar StarLAN.host[0].pingApp[41] "Pings sent" 372
scalar StarLAN.host[0].pingApp[41] "ping loss rate (%)" 0
scalar StarLAN.host[0].pingApp[41] "ping out-of-order rate (%)" 0
scalar StarLAN.host[0].pingApp[41] pingRxSeq:count 283
attr interpolationmode none
attr title "ping rx seq, count"
scalar StarLAN.host[0].pingApp[41] pingTxSeq:count 283
attr interpolationmode none
attr title "ping tx seq, count"
scalar StarLAN.host[0].pingApp[41] numOutOfOrderArrivals:last nan
attr interpolationmode none
attr title "ping out-of-order arrivals, last"
scalar StarLAN.host[0].pingApp[41] numLost:last nan
attr interpolationmode none
attr title "pings lost, last"
scalar StarLAN.host[0].pingApp[41] rtt:mean 0.00058936292575876
attr interpolationmode none
attr title "ping round-trip time, mean"
attr unit s
scalar StarLAN.host[0].pingApp[42] "Pings sent" 397
scalar StarLAN.host[0].pingApp[42] "ping loss rate (%)" 0
scalar StarLAN.host[0].pingApp[42] "ping out-of-order rate (%)" 0
scalar StarLAN.host[0].pingApp[42] pingRxSeq:count 300
attr interpolationmode none
attr title "ping rx seq, count"
scalar StarLAN.host[0].pingApp[42] pingTxSeq:count 300
attr interpolationmode none
attr title "ping tx seq, count"
scalar StarLAN.host[0].pingApp[42] numOutOfOrderArrivals:last nan
attr interpolationmode none
attr title "ping out-of-order arrivals, last"
scalar StarLAN.host[0].pingApp[42] numLost:last nan
attr interpolationmode none
attr title "pings lost, last"
scalar StarLAN.host[0].pingApp[42] rtt:mean 0.00035667995051119
attr interpolationmode none
attr title "ping round-trip time, mean"
attr unit s
scalar StarLAN.host[0].pingApp[43] "Pings sent" 376
scalar StarLAN.host[0].pingApp[43] "ping loss rate (%)" 0
scalar StarLAN.host[0].pingApp[43] "ping out-of-order rate (%)" 0
scalar StarLAN.host[0].pingApp[43] pingRxSeq:count 282
attr interpolationmode none
attr title "ping rx seq, count"
scalar StarLAN.host[0].pingApp[43] pingTxSeq:count 282
attr interpolationmode none
attr title "ping tx seq, count"
scalar StarLAN.host[0].pingApp[43] numOutOfOrderArrivals:last nan
attr interpolationmode none
attr title "ping out-of-order arrivals, last"
scalar StarLAN.host[0].pingApp[43] numLost:last nan
attr interpolationmode none
attr title "pings lost, last"
scalar StarLAN.host[0].pingApp[43] rtt:mean 0.00024627843015663
attr interpolationmode none
attr title "ping round-trip time, mean"
attr unit s
scalar StarLAN.host[0].pingApp[44] "Pings sent" 384
scalar StarLAN.host[0].pingApp[44] "ping loss rate (%)" 0
scalar StarLAN.host[0].pingApp[44] "ping out-of-order rate (%)" 0
scalar StarLAN.host[0].pingApp[44] pingRxSeq:count 292
attr interpolationmode none
attr title "ping rx seq, count"
scalar StarLAN.host[0].pingApp[44] pingTxSeq:count 292
attr interpolationmode none
attr title "ping tx seq, count"
scalar StarLAN.host[0].pingApp[44] numOutOfOrderArrivals:last nan
attr interpolationmode none
attr title "ping out-of-order arrivals, last"
scalar StarLAN.host[0].pingApp[44] numLost:last nan
attr interpolationmode none
attr title "pings lost, last"
scalar StarLAN.host[0].pingApp[44] rtt:mean 0.00058800251460741
attr interpolationmode none
attr title "ping round-trip time, mean"
attr unit s
scalar StarLAN.host[0].pingApp[45] "Pings sent" 389
scalar StarLAN.host[0].pingApp[45] "ping loss rate (%)" 0
scalar StarLAN.host[0].pingApp[45] "ping out-of-order rate (%)" 0
scalar StarLAN.host[0].pingApp[45] pingRxSeq:count 291
attr interpolationmode none
attr title "ping rx seq, count"
scalar StarLAN.host[0].pingApp[45] pingTxSeq:count 291
attr interpolationmode none
attr title "ping tx seq, count"
scalar StarLAN.host[0].pingApp[45] numOutOfOrderArrivals:last nan
attr interpolationmode none
attr title "ping out-of-order arrivals, last"
scalar StarLAN.host[0].pingApp[45] numLost:last nan
attr interpolationmode none
attr title "pings lost, last"
scalar StarLAN.host[0].pingApp[45] rtt:mean 0.00064712479245318
attr interpolationmode none
attr title "ping round-trip time, mean"
attr unit s
scalar StarLAN.host[0].pingApp[46] "Pings sent" 399
scalar StarLAN.host[0].pingApp[46] "ping loss rate (%)" 0
scalar StarLAN.host[0].pingApp[46] "ping out-of-order rate (%)" 0
scalar StarLAN.host[0].pingApp[46] pingRxSeq:count 294
attr interpolationmode none
attr title "ping rx seq, count"
scalar StarLAN.host[0].pingApp[46] pingTxSeq:count 294
attr interpolationmode none
attr title "ping tx seq, count"
scalar StarLAN.host[0].pingApp[46] numOutOfOrderArrivals:last nan
attr interpolationmode none
attr title "ping out-of-order arrivals, last"
scalar StarLAN.host[0].pingApp[46] numLost:last nan
attr interpolationmode none
attr title "pings lost, last"
scalar StarLAN.host[0].pingApp[46] rtt:mean 0.00049958728880074
attr interpolationmode none
attr title "ping round-trip time, mean"
attr unit s
scalar StarLAN.host[0].pingApp[47] "Pings sent" 383
scalar StarLAN.host[0].pingApp[47] "ping loss rate (%)" 0
scalar StarLAN.host[0].pingApp[47] "ping out-of-order rate (%)" 0
scalar StarLAN.host[0].pingApp[47] pingRxSeq:count 291
attr interpolationmode none
attr title "ping rx seq, count"
scalar StarLAN.host[0].pingApp[47] pingTxSeq:count 291
attr interpolationmode none
attr title "ping tx seq, count"
scalar StarLAN.host[0].pingApp[47] numOutOfOrderArrivals:last nan
attr interpolationmode none
attr title "ping out-of-order arrivals, last"
scalar StarLAN.host[0].pingApp[47] numLost:last nan
attr interpolationmode none
attr title "pings lost, last"
scalar StarLAN.host[0].pingApp[47] rtt:mean 0.0002853751425283
attr interpolationmode none
attr title "ping round-trip time, mean"
attr unit s
scalar StarLAN.host[0].pingApp[48] "Pings sent" 377
scalar StarLAN.host[0].pingApp[48] "ping loss rate (%)" 0
scalar StarLAN.host[0].pingApp[48] "ping out-of-order rate (%)" 0
scalar StarLAN.host[0].pingApp[48] pingRxSeq:count 291
attr interpolationmode none
attr title "ping rx seq, count"
scalar StarLAN.host[0].pingApp[48] pingTxSeq:count 291
attr interpolationmode none
attr title "ping tx seq, count"
scalar StarLAN.host[0].pingApp[48] numOutOfOrderArrivals:last nan
attr interpolationmode none
attr title "ping out-of-order arrivals, last"
scalar StarLAN.host[0].pingApp[48] numLost:last nan
attr interpolationmode none
attr title "pings lost, last"
scalar StarLAN.host[0].pingApp[48] rtt:mean 0.00039205063914717
attr interpolationmode none
attr title "ping round-trip time, mean"
attr unit s
scalar StarLAN.host[0].pingApp[49] "Pings sent" 404
scalar StarLAN.host[0].pingApp[49] "ping loss rate (%)" 0
scalar StarLAN.host[0].pingApp[49] "ping out-of-order rate (%)" 0.4950495049505
scalar StarLAN.host[0].pingApp[49] pingRxSeq:count 301
attr interpolationmode none
attr title "ping rx seq, count"
scalar StarLAN.host[0].pingApp[49] pingTxSeq:count 301
attr interpolationmode none
attr title "ping tx seq, count"
scalar StarLAN.host[0].pingApp[49] numOutOfOrderArrivals:last 2
attr interpolationmode none
attr title "ping out-of-order arrivals, last"
scalar StarLAN.host[0].pingApp[49] numLost:last 0
attr interpolationmode none
attr title "pings lost, last"
scalar StarLAN.host[0].pingApp[49] rtt:mean 0.00024642105106204
attr interpolationmode none
attr title "ping round-trip time, mean"
attr unit s
scalar StarLAN.host[0].pingApp[50] "Pings sent" 408
scalar StarLAN.host[0].pingApp[50] "ping loss rate (%)" 0
scalar StarLAN.host[0].pingApp[50] "ping out-of-order rate (%)" 0
scalar StarLAN.host[0].pingApp[50] pingRxSeq:count 308
attr interpolationmode none
attr title "ping rx seq, count"
scalar StarLAN.host[0].pingApp[50] pingTxSeq:count 308
attr interpolationmode none
attr title "ping tx seq, count"
scalar StarLAN.host[0].pingApp[50] numOutOfOrderArrivals:last nan
attr interpolationmode none
attr title "ping out-of-order arrivals, last"
scalar StarLAN.host[0].pingApp[50] numLost:last nan
attr interpolationmode none
attr title "pings lost, last"
scalar StarLAN.host[0].pingApp[50] rtt:mean 0.00020960681678067
attr interpolationmode none
attr title "ping round-trip time, mean"
attr unit s
scalar StarLAN.host[0].pingApp[51] "Pings sent" 373
scalar StarLAN.host[0].pingApp[51] "ping loss rate (%)" 0
scalar StarLAN.host[0].pingApp[51] "ping out-of-order rate (%)" 0
scalar StarLAN.host[0].pingApp[51] pingRxSeq:count 282
attr interpolationmode none
attr title "ping rx seq, count"
scalar StarLAN.host[0].pingApp[51] pingTxSeq:count 282
attr interpolationmode none
attr title "ping tx seq, count"
scalar StarLAN.host[0].pingApp[51] numOutOfOrderArrivals:last nan
attr interpolationmode none
attr title "ping out-of-order arrivals, last"
scalar StarLAN.host[0].pingApp[51] numLost:last nan
attr interpolationmode none
attr title "pings lost, last"
scalar StarLAN.host[0].pingApp[51] rtt:mean 0.00061759311378295
attr interpolationmode none
attr title "ping round-trip time, mean"
attr unit s
scalar StarLAN.host[0].pingApp[52] "Pings sent" 388
scalar StarLAN.host[0].pingApp[52] "ping loss rate (%)" 0
scalar StarLAN.host[0].pingApp[52] "ping out-of-order rate (%)" 0
scalar StarLAN.host[0].pingApp[52] pingRxSeq:count 298
attr interpolationmode none
attr title "ping rx seq, count"
scalar StarLAN.host[0].pingApp[52] pingTxSeq:count 298
attr interpolationmode none
attr title "ping tx seq, count"
scalar StarLAN.host[0].pingApp[52] numOutOfOrderArrivals:last nan
attr interpolationmode none
attr title "ping out-of-order arrivals, last"
scalar StarLAN.host[0].pingApp[52] numLost:last nan
attr interpolationmode none
attr title "pings lost, last"
scalar StarLAN.host[0].pingApp[52] rtt:mean 0.00049900732370037
attr interpolationmode none
attr title "ping round-trip time, mean"
attr unit s
scalar StarLAN.host[0].pingApp[53] "Pings sent" 391
scalar StarLAN.host[0].pingApp[53] "ping loss rate (%)" 0
scalar StarLAN.host[0].pingApp[53] "ping out-of-order rate (%)" 0
scalar StarLAN.host[0].pingApp[53] pingRxSeq:count 290
attr interpolationmode none
attr title "ping rx seq, count"
scalar StarLAN.host[0].pingApp[53] pingTxSeq:count 290
attr interpolationmode none
attr title "ping tx seq, count"
scalar StarLAN.host[0].pingApp[53] numOutOfOrderArrivals:last nan
attr interpolationmode none
attr title "ping out-of-order arrivals, last"
scalar StarLAN.host[0].pingApp[53] numLost:last nan
attr interpolationmode none
attr title "pings lost, last"
scalar StarLAN.host[0].pingApp[53] rtt:mean 0.00051292233238113
attr interpolationmode none
attr title "ping round-trip time, mean"
attr unit s
scalar StarLAN.host[0].pingApp[54] "Pings sent" 370
scalar StarLAN.host[0].pingApp[54] "ping loss rate (%)" 0
scalar StarLAN.host[0].pingApp[54] "ping out-of-order rate (%)" 0
scalar StarLAN.host[0].pingApp[54] pingRxSeq:count 279
attr interpolationmode none
attr title "ping rx seq, count"
scalar StarLAN.host[0].pingApp[54] pingTxSeq:count 279
attr interpolationmode none
attr title "ping tx seq, count"
scalar StarLAN.host[0].pingApp[54] numOutOfOrderArrivals:last nan
attr interpolationmode none
attr title "ping out-of-order arrivals, last"
scalar StarLAN.host[0].pingApp[54] numLost:last nan
attr interpolationmode none
attr title "pings lost, last"
scalar StarLAN.host[0].pingApp[54] rtt:mean 0.00053733910944621
attr interpolationmode none
attr title "ping round-trip time, mean"
attr unit s
scalar StarLAN.host[0].pingApp[55] "Pings sent" 383
scalar StarLAN.host[0].pingApp[55] "ping loss rate (%)" 0
scalar StarLAN.host[0].pingApp[55] "ping out-of-order rate (%)" 0
scalar StarLAN.host[0].pingApp[55] pingRxSeq:count 292
attr interpolationmode none
attr title "ping rx seq, count"
scalar StarLAN.host[0].pingApp[55] pingTxSeq:count 292
attr interpolationmode none
attr title "ping tx seq, count"
scalar StarLAN.host[0].pingApp[55] numOutOfOrderArrivals:last nan
attr interpolationmode none
attr title "ping out-of-order arrivals, last"
scalar StarLAN.host[0].pingApp[55] numLost:last nan
attr interpolationmode none
attr title "pings lost, last"
scalar StarLAN.host[0].pingApp[55] rtt:mean 0.0006006935551284
attr interpolationmode none
attr title "ping round-trip time, mean"
attr unit s
scalar StarLAN.host[0].pingApp[56] "Pings sent" 400
scalar StarLAN.host[0].pingApp[56] "ping loss rate (%)" 0
scalar StarLAN.host[0].pingApp[56] "ping out-of-order rate (%)" 0
scalar StarLAN.host[0].pingApp[56] pingRxSeq:count 307
attr interpolationmode none
attr title "ping rx seq, count"
scalar StarLAN.host[0].pingApp[56] pingTxSeq:count 307
attr interpolationmode none
attr title "ping tx seq, count"
scalar StarLAN.host[0].pingApp[56] numOutOfOrderArrivals:last nan
attr interpolationmode none
attr title "ping out-of-order arrivals, last"
scalar StarLAN.host[0].pingApp[56] numLost:last nan
attr interpolationmode none
attr title "pings lost, last"
scalar StarLAN.host[0].pingApp[56] rtt:mean 0.00062302809063636
attr interpolationmode none
attr title "ping round-trip time, mean"
attr unit s
scalar StarLAN.host[0].pingApp[57] "Pings sent" 378
scalar StarLAN.host[0].pingApp[57] "ping loss rate (%)" 0
scalar StarLAN.host[0].pingApp[57] "ping out-of-order rate (%)" 0
scalar StarLAN.host[0].pingApp[57] pingRxSeq:count 282
attr interpolationmode none
attr title "ping rx seq, count"
scalar StarLAN.host[0].pingApp[57] pingTxSeq:count 282
attr interpolationmode none
attr title "ping tx seq, count"
scalar StarLAN.host[0].pingApp[57] numOutOfOrderArrivals:last nan
attr interpolationmode none
attr title "ping out-of-order arrivals, last"
scalar StarLAN.host[0].pingApp[57] numLost:last nan
attr interpolationmode none
attr title "pings lost, last"
scalar StarLAN.host[0].pingApp[57] rtt:mean 0.00059501350403187
attr interpolationmode none
attr title "ping round-trip time, mean"
attr unit s
scalar StarLAN.host[0].pingApp[58] "Pings sent" 397
scalar StarLAN.host[0].pingApp[58] "ping loss rate (%)" 0
scalar StarLAN.host[0].pingApp[58] "ping out-of-order rate (%)" 0
scalar StarLAN.host[0].pingApp[58] pingRxSeq:count 299
attr interpolationmode none
attr title "ping rx seq, count"
scalar StarLAN.host[0].pingApp[58] pingTxSeq:count 299
attr interpolationmode none
attr title "ping tx seq, count"
scalar StarLAN.host[0].pingApp[58] numOutOfOrderArrivals:last nan
attr interpolationmode none
attr title "ping out-of-order arrivals, last"
scalar StarLAN.host[0].pingApp[58] numLost:last nan
attr interpolationmode none
attr title "pings lost, last"
scalar StarLAN.host[0].pingApp[58] rtt:mean 0.00028430458156391
attr interpolationmode none
attr title "ping round-trip time, mean"
attr unit s
scalar StarLAN.host[0].pingApp[59] "Pings sent" 399
scalar StarLAN.host[0].pingApp[59] "ping loss rate (%)" 0
scalar StarLAN.host[0].pingApp[59] "ping out-of-order rate (%)" 0
scalar StarLAN.host[0].pingApp[59] pingRxSeq:count 301
attr interpolationmode none
attr title "ping rx seq, count"
scalar StarLAN.host[0].pingApp[59] pingTxSeq:count 301
attr interpolationmode none
attr title "ping tx seq, count"
scalar StarLAN.host[0].pingApp[59] numOutOfOrderArrivals:last nan
attr interpolationmode none
attr title "ping out-of-order arrivals, last"
scalar StarLAN.host[0].pingApp[59] numLost:last nan
attr interpolationmode none
attr title "pings lost, last"
scalar StarLAN.host[0].pingApp[59] rtt:mean 0.00032625709912734
attr interpolationmode none
attr title "ping round-trip time, mean"
attr unit s
scalar StarLAN.host[0].pingApp[60] "Pings sent" 386
scalar StarLAN.host[0].pingApp[60] "ping loss rate (%)" 0
scalar StarLAN.host[0].pingApp[60] "ping out-of-order rate (%)" 0
scalar StarLAN.host[0].pingApp[60] pingRxSeq:count 292
attr interpolationmode none
attr title "ping rx seq, count"
scalar StarLAN.host[0].pingApp[60] pingTxSeq:count 292
attr interpolationmode none
attr title "ping tx seq, count"
scalar StarLAN.host[0].pingApp[60] numOutOfOrderArrivals:last nan
attr interpolationmode none
attr title "ping out-of-order arrivals, last"
scalar StarLAN.host[0].pingApp[60] numLost:last nan
attr interpolationmode none
attr title "pings lost, last"
scalar StarLAN.host[0].pingApp[60] rtt:mean 0.00055485438791321
attr interpolationmode none
attr title "ping round-trip time, mean"
attr unit s
scalar StarLAN.host[0].pingApp[61] "Pings sent" 395
scalar StarLAN.host[0].pingApp[61] "ping loss rate (%)" 0
scalar StarLAN.host[0].pingApp[61] "ping out-of-order rate (%)" 0
scalar StarLAN.host[0].pingApp[61] pingRxSeq:count 299
attr interpolationmode none
attr title "ping rx seq, count"
scalar StarLAN.host[0].pingApp[61] pingTxSeq:count 299
attr interpolationmode none
attr title "ping tx seq, count"
scalar StarLAN.host[0].pingApp[61] numOutOfOrderArrivals:last nan
attr interpolationmode none
attr title "ping out-of-order arrivals, last"
scalar StarLAN.host[0].pingApp[61] numLost:last nan
attr interpolationmode none
attr title "pings lost, last"
scalar StarLAN.host[0].pingApp[61] rtt:mean 0.00052497379630741
attr interpolationmode none
attr title "ping round-trip time, mean"
attr unit s
scalar StarLAN.host[0].pingApp[62] "Pings sent" 382
scalar StarLAN.host[0].pingApp[62] "ping loss rate (%)" 0
scalar StarLAN.host[0].pingApp[62] "ping out-of-order rate (%)" 0
scalar StarLAN.host[0].pingApp[62] pingRxSeq:count 289
attr interpolationmode none
attr title "ping rx seq, count"
scalar StarLAN.host[0].pingApp[62] pingTxSeq:count 289
attr interpolationmode none
attr title "ping tx seq, count"
scalar StarLAN.host[0].pingApp[62] numOutOfOrderArrivals:last nan
attr interpolationmode none
attr title "ping out-of-order arrivals, last"
scalar StarLAN.host[0].pingApp[62] numLost:last nan
attr interpolationmode none
attr title "pings lost, last"
scalar StarLAN.host[0].pingApp[62] rtt:mean 0.00049145806001938
attr interpolationmode none
attr title "ping round-trip time, mean"
attr unit s
scalar StarLAN.host[0].pingApp[63] "Pings sent" 380
scalar StarLAN.host[0].pingApp[63] "ping loss rate (%)" 0
scalar StarLAN.host[0].pingApp[63] "ping out-of-order rate (%)" 0
scalar StarLAN.host[0].pingApp[63] pingRxSeq:count 286
attr interpolationmode none
attr title "ping rx seq, count"
scalar StarLAN.host[0].pingApp[63] pingTxSeq:count 286
attr interpolationmode none
attr title "ping tx seq, count"
scalar StarLAN.host[0].pingApp[63] numOutOfOrderArrivals:last nan
attr interpolationmode none
attr title "ping out-of-order arrivals, last"
scalar StarLAN.host[0].pingApp[63] numLost:last nan
attr interpolationmode none
attr title "pings lost, last"
scalar StarLAN.host[0].pingApp[63] rtt:mean 0.00052699844382626
attr interpolationmode none
attr title "ping round-trip time, mean"
attr unit s
scalar StarLAN.host[0].pingApp[64] "Pings sent" 390
scalar StarLAN.host[0].pingApp[64] "ping loss rate (%)" 0
scalar StarLAN.host[0].pingApp[64] "ping out-of-order rate (%)" 0
scalar StarLAN.host[0].pingApp[64] pingRxSeq:count 294
attr interpolationmode none
attr title "ping rx seq, count"
scalar StarLAN.host[0].pingApp[64] pingTxSeq:count 294
attr interpolationmode none
attr title "ping tx seq, count"
scalar StarLAN.host[0].pingApp[64] numOutOfOrderArrivals:last nan
attr interpolationmode none
attr title "ping out-of-order arrivals, last"
scalar StarLAN.host[0].pingApp[64] numLost:last nan
attr interpolationmode none
attr title "pings lost, last"
scalar StarLAN.host[0].pingApp[64] rtt:mean 0.00053239028657955
attr interpolationmode none
attr title "ping round-trip time, mean"
attr unit s
scalar StarLAN.host[0].pingApp[65] "Pings sent" 399
scalar StarLAN.host[0].pingApp[65] "ping loss rate (%)" 0
scalar StarLAN.host[0].pingApp[65] "ping out-of-order rate (%)" 0
scalar StarLAN.host[0].pingApp[65] pingRxSeq:count 305
attr interpolationmode none
attr title "ping rx seq, count"
scalar StarLAN.host[0].pingApp[65] pingTxSeq:count 305
attr interpolationmode none
attr title "ping tx seq, count"
scalar StarLAN.host[0].pingApp[65] numOutOfOrderArrivals:last nan
attr interpolationmode none
attr title "ping out-of-order arrivals, last"
scalar StarLAN.host[0].pingApp[65] numLost:last nan
attr interpolationmode none
attr title "pings lost, last"
scalar StarLAN.host[0].pingApp[65] rtt:mean 0.00037344957197818
attr interpolationmode none
attr title "ping round-trip time, mean"
attr unit s
scalar StarLAN.host[0].pingApp[66] "Pings sent" 388
scalar StarLAN.host[0].pingApp[66] "ping loss rate (%)" 0
scalar StarLAN.host[0].pingApp[66] "ping out-of-order rate (%)" 0
scalar StarLAN.host[0].pingApp[66] pingRxSeq:count 299
attr interpolationmode none
attr title "ping rx seq, count"
scalar StarLAN.host[0].pingApp[66] pingTxSeq:count 299
attr interpolationmode none
attr title "ping tx seq, count"
scalar StarLAN.host[0].pingApp[66] numOutOfOrderArrivals:last nan
attr interpolationmode none
attr title "ping out-of-order arrivals, last"
scalar StarLAN.host[0].pingApp[66] numLost:last nan
attr interpolationmode none
attr title "pings lost, last"
scalar StarLAN.host[0].pingApp[66] rtt:mean 0.00058576792374286
attr interpolationmode none
attr title "ping round-trip time, mean"
attr unit s
scalar StarLAN.host[0].pingApp[67] "Pings sent" 375
scalar StarLAN.host[0].pingApp[67] "ping loss rate (%)" 0
scalar StarLAN.host[0].pingApp[67] "ping out-of-order rate (%)" 0
scalar StarLAN.host[0].pingApp[67] pingRxSeq:count 293
attr interpolationmode none
attr title "ping rx seq, count"
scalar StarLAN.host[0].pingApp[67] pingTxSeq:count 293
attr interpolationmode none
attr title "ping tx seq, count"
scalar StarLAN.host[0].pingApp[67] numOutOfOrderArrivals:last nan
attr interpolationmode none
attr title "ping out-of-order arrivals, last"
scalar StarLAN.host[0].pingApp[67] numLost:last nan
attr interpolationmode none
attr title "pings lost, last"
scalar StarLAN.host[0].pingApp[67] rtt:mean 0.00043134951236029
attr interpolationmode none
attr title "ping round-trip time, mean"
attr unit s
scalar StarLAN.host[0].pingApp[68] "Pings sent" 385
scalar StarLAN.host[0].pingApp[68] "ping loss rate (%)" 0
scalar StarLAN.host[0].pingApp[68] "ping out-of-order rate (%)" 0
scalar StarLAN.host[0].pingApp[68] pingRxSeq:count 282
attr interpolationmode none
attr title "ping rx seq, count"
scalar StarLAN.host[0].pingApp[68] pingTxSeq:count 282
attr interpolationmode none
attr title "ping tx seq, count"
scalar StarLAN.host[0].pingApp[68] numOutOfOrderArrivals:last nan
attr interpolationmode none
attr title "ping out-of-order arrivals, last"
scalar StarLAN.host[0].pingApp[68] numLost:last nan
attr interpolationmode none
attr title "pings lost, last"
scalar StarLAN.host[0].pingApp[68] rtt:mean 0.00043972167463922
attr interpolationmode none
attr title "ping round-trip time, mean"
attr unit s
scalar StarLAN.host[0].pingApp[69] "Pings sent" 379
scalar StarLAN.host[0].pingApp[69] "ping loss rate (%)" 0
scalar StarLAN.host[0].pingApp[69] "ping out-of-order rate (%)" 0
scalar StarLAN.host[0].pingApp[69] pingRxSeq:count 291
attr interpolationmode none
attr title "ping rx seq, count"
scalar StarLAN.host[0].pingApp[69] pingTxSeq:count 291
attr interpolationmode none
attr title "ping tx seq, count"
scalar StarLAN.host[0].pingApp[69] numOutOfOrderArrivals:last nan
attr interpolationmode none
attr title "ping out-of-order arrivals, last"
scalar StarLAN.host[0].pingApp[69] numLost:last nan
attr interpolationmode none
attr title "pings lost, last"
scalar StarLAN.host[0].pingApp[69] rtt:mean 0.00055984283889764
attr interpolationmode none
attr title "ping round-trip time, mean"
attr unit s
scalar StarLAN.host[0].pingApp[70] "Pings sent" 388
scalar StarLAN.host[0].pingApp[70] "ping loss rate (%)" 0
scalar StarLAN.host[0].pingApp[70] "ping out-of-order rate (%)" 0
scalar StarLAN.host[0].pingApp[70] pingRxSeq:count 297
attr interpolationmode none
attr title "ping rx seq, count"
scalar StarLAN.host[0].pingApp[70] pingTxSeq:count 297
attr interpolationmode none
attr title "ping tx seq, count"
scalar StarLAN.host[0].pingApp[70] numOutOfOrderArrivals:last nan
attr interpolationmode none
attr title "ping out-of-order arrivals, last"
scalar StarLAN.host[0].pingApp[70] numLost:last nan
attr interpolationmode none
attr title "pings lost, last"
scalar StarLAN.host[0].pingApp[70] rtt:mean 0.0005917900310738
attr interpolationmode none
attr title "ping round-trip time, mean"
attr unit s
scalar StarLAN.host[0].pingApp[71] "Pings sent" 380
scalar StarLAN.host[0].pingApp[71] "ping loss rate (%)" 0
scalar StarLAN.host[0].pingApp[71] "ping out-of-order rate (%)" 0
scalar StarLAN.host[0].pingApp[71] pingRxSeq:count 287
attr interpolationmode none
attr title "ping rx seq, count"
scalar StarLAN.host[0].pingApp[71] pingTxSeq:count 287
attr interpolationmode none
attr title "ping tx seq, count"
scalar StarLAN.host[0].pingApp[71] numOutOfOrderArrivals:last nan
attr interpolationmode none
attr title "ping out-of-order arrivals, last"
scalar StarLAN.host[0].pingApp[71] numLost:last nan
attr interpolationmode none
attr title "pings lost, last"
scalar StarLAN.host[0].pingApp[71] rtt:mean 0.00063882344588327
attr interpolationmode none
attr title "ping round-trip time, mean"
attr unit s
scalar StarLAN.host[0].pingApp[72] "Pings sent" 394
scalar StarLAN.host[0].pingApp[72] "ping loss rate (%)" 0
scalar StarLAN.host[0].pingApp[72] "ping out-of-order rate (%)" 0
scalar StarLAN.host[0].pingApp[72] pingRxSeq:count 300
attr interpolationmode none
attr title "ping rx seq, count"
scalar StarLAN.host[0].pingApp[72] pingTxSeq:count 300
attr interpolationmode none
attr title "ping tx seq, count"
scalar StarLAN.host[0].pingApp[72] numOutOfOrderArrivals:last nan
attr interpolationmode none
attr title "ping out-of-order arrivals, last"
scalar StarLAN.host[0].pingApp[72] numLost:last nan
attr interpolationmode none
attr title "pings lost, last"
scalar StarLAN.host[0].pingApp[72] rtt:mean 0.00040310304150182
attr interpolationmode none
attr title "ping round-trip time, mean"
attr unit s
scalar StarLAN.host[0].pingApp[73] "Pings sent" 383
scalar StarLAN.host[0].pingApp[73] "ping loss rate (%)" 0
scalar StarLAN.host[0].pingApp[73] "ping out-of-order rate (%)" 0
scalar StarLAN.host[0].pingApp[73] pingRxSeq:count 296
attr interpolationmode none
attr title "ping rx seq, count"
scalar StarLAN.host[0].pingApp[73] pingTxSeq:count 296
attr interpolationmode none
attr title "ping tx seq, count"
scalar StarLAN.host[0].pingApp[73] numOutOfOrderArrivals:last nan
attr interpolationmode none
attr title "ping out-of-order arrivals, last"
scalar StarLAN.host[0].pingApp[73] numLost:last nan
attr interpolationmode none
attr title "pings lost, last"
scalar StarLAN.host[0].pingApp[73] rtt:mean 0.00038612376192366
attr interpolationmode none
attr title "ping round-trip time, mean"
attr unit s
scalar StarLAN.host[0].pingApp[74] "Pings sent" 387
scalar StarLAN.host[0].pingApp[74] "ping loss rate (%)" 0
scalar StarLAN.host[0].pingApp[74] "ping out-of-order rate (%)" 0
scalar StarLAN.host[0].pingApp[74] pingRxSeq:count 293
attr interpolationmode none
attr title "ping rx seq, count"
scalar StarLAN.host[0].pingApp[74] pingTxSeq:count 293
attr interpolationmode none
attr title "ping tx seq, count"
scalar StarLAN.host[0].pingApp[74] numOutOfOrderArrivals:last nan
attr interpolationmode none
attr title "ping out-of-order arrivals, last"
scalar StarLAN.host[0].pingApp[74] numLost:last nan
attr interpolationmode none
attr title "pings lost, last"
scalar StarLAN.host[0].pingApp[74] rtt:mean 0.00053536568040824
attr interpolationmode none
attr title "ping round-trip time, mean"
attr unit s
scalar StarLAN.host[0].pingApp[75] "Pings sent" 384
scalar StarLAN.host[0].pingApp[75] "ping loss rate (%)" 0
scalar StarLAN.host[0].pingApp[75] "ping out-of-order rate (%)" 0
scalar StarLAN.host[0].pingApp[75] pingRxSeq:count 296
attr interpolationmode none
attr title "ping rx seq, count"
scalar StarLAN.host[0].pingApp[75] pingTxSeq:count 296
attr interpolationmode none
attr title "ping tx seq, count"
scalar StarLAN.host[0].pingApp[75] numOutOfOrderArrivals:last nan
attr interpolationmode none
attr title "ping out-of-order arrivals, last"
scalar StarLAN.host[0].pingApp[75] numLost:last nan
attr interpolationmode none
attr title "pings lost, last"
scalar StarLAN.host[0].pingApp[75] rtt:mean 0.00036633002036293
attr interpolationmode none
attr title "ping round-trip time, mean"
attr unit s
scalar StarLAN.host[0].pingApp[76] "Pings sent" 379
scalar StarLAN.host[0].pingApp[76] "ping loss rate (%)" 0
scalar StarLAN.host[0].pingApp[76] "ping out-of-order rate (%)" 0
scalar StarLAN.host[0].pingApp[76] pingRxSeq:count 287
attr interpolationmode none
attr title "ping rx seq, count"
scalar StarLAN.host[0].pingApp[76] pingTxSeq:count 287
attr interpolationmode none
attr title "ping tx seq, count"
scalar StarLAN.host[0].pingApp[76] numOutOfOrderArrivals:last nan
attr interpolationmode none
attr title "ping out-of-order arrivals, last"
scalar StarLAN.host[0].pingApp[76] numLost:last nan
attr interpolationmode none
attr title "pings lost, last"
scalar StarLAN.host[0].pingApp[76] rtt:mean 0.00048608380342187
attr interpolationmode none
attr title "ping round-trip time, mean"
attr unit s
scalar StarLAN.host[0].pingApp[77] "Pings sent" 378
scalar StarLAN.host[0].pingApp[77] "ping loss rate (%)" 0
scalar StarLAN.host[0].pingApp[77] "ping out-of-order rate (%)" 0.26455026455026
scalar StarLAN.host[0].pingApp[77] pingRxSeq:count 294
attr interpolationmode none
attr title "ping rx seq, count"
scalar StarLAN.host[0].pingApp[77] pingTxSeq:count 294
attr interpolationmode none
attr title "ping tx seq, count"
scalar StarLAN.host[0].pingApp[77] numOutOfOrderArrivals:last 1
attr interpolationmode none
attr title "ping out-of-order arrivals, last"
scalar StarLAN.host[0].pingApp[77] numLost:last 0
attr interpolationmode none
attr title "pings lost, last"
scalar StarLAN.host[0].pingApp[77] rtt:mean 0.00043744922861868
attr interpolationmode none
attr title "ping round-trip time, mean"
attr unit s
scalar StarLAN.host[0].pingApp[78] "Pings sent" 375
scalar StarLAN.host[0].pingApp[78] "ping loss rate (%)" 0
scalar StarLAN.host[0].pingApp[78] "ping out-of-order rate (%)" 0
scalar StarLAN.host[0].pingApp[78] pingRxSeq:count 283
attr interpolationmode none
attr title "ping rx seq, count"
scalar StarLAN.host[0].pingApp[78] pingTxSeq:count 283
attr interpolationmode none
attr title "ping tx seq, count"
scalar StarLAN.host[0].pingApp[78] numOutOfOrderArrivals:last nan
attr interpolationmode none
attr title "ping out-of-order arrivals, last"
scalar StarLAN.host[0].pingApp[78] numLost:last nan
attr interpolationmode none
attr title "pings lost, last"
scalar StarLAN.host[0].pingApp[78] rtt:mean 0.00025881747693254
attr interpolationmode none
attr title "ping round-trip time, mean"
attr unit s
scalar StarLAN.host[0].pingApp[79] "Pings sent" 372
scalar StarLAN.host[0].pingApp[79] "ping loss rate (%)" 0
scalar StarLAN.host[0].pingApp[79] "ping out-of-order rate (%)" 0
scalar StarLAN.host[0].pingApp[79] pingRxSeq:count 282
attr interpolationmode none
attr title "ping rx seq, count"
scalar StarLAN.host[0].pingApp[79] pingTxSeq:count 282
attr interpolationmode none
attr title "ping tx seq, count"
scalar StarLAN.host[0].pingApp[79] numOutOfOrderArrivals:last nan
attr interpolationmode none
attr title "ping out-of-order arrivals, last"
scalar StarLAN.host[0].pingApp[79] numLost:last nan
attr interpolationmode none
attr title "pings lost, last"
scalar StarLAN.host[0].pingApp[79] rtt:mean 0.00043000378371647
attr interpolationmode none
attr title "ping round-trip time, mean"
attr unit s
scalar StarLAN.host[0].pingApp[80] "Pings sent" 379
scalar StarLAN.host[0].pingApp[80] "ping loss rate (%)" 0
scalar StarLAN.host[0].pingApp[80] "ping out-of-order rate (%)" 0
scalar StarLAN.host[0].pingApp[80] pingRxSeq:count 282
attr interpolationmode none
attr title "ping rx seq, count"
scalar StarLAN.host[0].pingApp[80] pingTxSeq:count 282
attr interpolationmode none
attr title "ping tx seq, count"
scalar StarLAN.host[0].pingApp[80] numOutOfOrderArrivals:last nan
attr interpolationmode none
attr title "ping out-of-order arrivals, last"
scalar StarLAN.host[0].pingApp[80] numLost:last nan
attr interpolationmode none
attr title "pings lost, last"
scalar StarLAN.host[0].pingApp[80] rtt:mean 0.00029907265402353
attr interpolationmode none
attr title "ping round-trip time, mean"
attr unit s
scalar StarLAN.host[0].pingApp[81] "Pings sent" 380
scalar StarLAN.host[0].pingApp[81] "ping loss rate (%)" 0
scalar StarLAN.host[0].pingApp[81] "ping out-of-order rate (%)" 0
scalar StarLAN.host[0].pingApp[81] pingRxSeq:count 288
attr interpolationmode none
attr title "ping rx seq, count"
scalar StarLAN.host[0].pingApp[81] pingTxSeq:count 288
attr interpolationmode none
attr title "ping tx seq, count"
scalar StarLAN.host[0].pingApp[81] numOutOfOrderArrivals:last nan
attr interpolationmode none
attr title "ping out-of-order arrivals, last"
scalar StarLAN.host[0].pingApp[81] numLost:last nan
attr interpolationmode none
attr title "pings lost, last"
scalar StarLAN.host[0].pingApp[81] rtt:mean 0.00062572641987924
attr interpolationmode none
attr title "ping round-trip time, mean"
attr unit s
scalar StarLAN.host[0].pingApp[82] "Pings sent" 401
scalar StarLAN.host[0].pingApp[82] "ping loss rate (%)" 0
scalar StarLAN.host[0].pingApp[82] "ping out-of-order rate (%)" 0
scalar StarLAN.host[0].pingApp[82] pingRxSeq:count 296
attr interpolationmode none
attr title "ping rx seq, count"
scalar StarLAN.host[0].pingApp[82] pingTxSeq:count 295
attr interpolationmode none
attr title "ping tx seq, count"
scalar StarLAN.host[0].pingApp[82] numOutOfOrderArrivals:last nan
attr interpolationmode none
attr title "ping out-of-order arrivals, last"
scalar StarLAN.host[0].pingApp[82] numLost:last nan
attr interpolationmode none
attr title "pings lost, last"
scalar StarLAN.host[0].pingApp[82] rtt:mean 0.00055929329883019
attr interpolationmode none
attr title "ping round-trip time, mean"
attr unit s
scalar StarLAN.host[0].pingApp[83] "Pings sent" 369
scalar StarLAN.host[0].pingApp[83] "ping loss rate (%)" 0.2710027100271
scalar StarLAN.host[0].pingApp[83] "ping out-of-order rate (%)" 0
scalar StarLAN.host[0].pingApp[83] pingRxSeq:count 284
attr interpolationmode none
attr title "ping rx seq, count"
scalar StarLAN.host[0].pingApp[83] pingTxSeq:count 285
attr interpolationmode none
attr title "ping tx seq, count"
scalar StarLAN.host[0].pingApp[83] numOutOfOrderArrivals:last nan
attr interpolationmode none
attr title "ping out-of-order arrivals, last"
scalar StarLAN.host[0].pingApp[83] numLost:last 1
attr interpolationmode none
attr title "pings lost, last"
scalar StarLAN.host[0].pingApp[83] rtt:mean 0.00046929669990873
attr interpolationmode none
attr title "ping round-trip time, mean"
attr unit s
scalar StarLAN.host[0].pingApp[84] "Pings sent" 393
scalar StarLAN.host[0].pingApp[84] "ping loss rate (%)" 0
scalar StarLAN.host[0].pingApp[84] "ping out-of-order rate (%)" 0
scalar StarLAN.host[0].pingApp[84] pingRxSeq:count 297
attr interpolationmode none
attr title "ping rx seq, count"
scalar StarLAN.host[0].pingApp[84] pingTxSeq:count 297
attr interpolationmode none
attr title "ping tx seq, count"
scalar StarLAN.host[0].pingApp[84] numOutOfOrderArrivals:last nan
attr interpolationmode none
attr title "ping out-of-order arrivals, last"
scalar StarLAN.host[0].pingApp[84] numLost:last nan
attr interpolationmode none
attr title "pings lost, last"
scalar StarLAN.host[0].pingApp[84] rtt:mean 0.00039024972845522
attr interpolationmode none
attr title "ping round-trip time, mean"
attr unit s
scalar StarLAN.host[0].pingApp[85] "Pings sent" 383
scalar StarLAN.host[0].pingApp[85] "ping loss rate (%)" 0
scalar StarLAN.host[0].pingApp[85] "ping out-of-order rate (%)" 0
scalar StarLAN.host[0].pingApp[85] pingRxSeq:count 293
attr interpolationmode none
attr title "ping rx seq, count"
scalar StarLAN.host[0].pingApp[85] pingTxSeq:count 293
attr interpolationmode none
attr title "ping tx seq, count"
scalar StarLAN.host[0].pingApp[85] numOutOfOrderArrivals:last nan
attr interpolationmode none
attr title "ping out-of-order arrivals, last"
scalar StarLAN.host[0].pingApp[85] numLost:last nan
attr interpolationmode none
attr title "pings lost, last"
scalar StarLAN.host[0].pingApp[85] rtt:mean 0.0005031297293834
attr interpolationmode none
attr title "ping round-trip time, mean"
attr unit s
scalar StarLAN.host[0].pingApp[86] "Pings sent" 375
scalar StarLAN.host[0].pingApp[86] "ping loss rate (%)" 0
scalar StarLAN.host[0].pingApp[86] "ping out-of-order rate (%)" 0
scalar StarLAN.host[0].pingApp[86] pingRxSeq:count 284
attr interpolationmode none
attr title "ping rx seq, count"
scalar StarLAN.host[0].pingApp[86] pingTxSeq:count 284
attr interpolationmode none
attr title "ping tx seq, count"
scalar StarLAN.host[0].pingApp[86] numOutOfOrderArrivals:last nan
attr interpolationmode none
attr title "ping out-of-order arrivals, last"
scalar StarLAN.host[0].pingApp[86] numLost:last nan
attr interpolationmode none
attr title "pings lost, last"
scalar StarLAN.host[0].pingApp[86] rtt:mean 0.0006575286304321
attr interpolationmode none
attr title "ping round-trip time, mean"
attr unit s
scalar StarLAN.host[0].pingApp[87] "Pings sent" 385
[...]
field sum 5.489177188723
field sqrsum 0.00074186501906508
attr interpolationmode none
attr title "queueing time, histogram"
bin	-inf	0
bin	-0.0001123679535	0
bin	-9.73855597e-005	0
bin	-8.24031659e-005	0
bin	-6.74207721e-005	0
bin	-5.24383783e-005	0
bin	-3.74559845e-005	0
bin	-2.24735907e-005	0
bin	-7.4911969e-006	43398
bin	7.4911969e-006	5103
bin	2.24735907e-005	6352
bin	3.74559845e-005	8418
bin	5.24383783e-005	10046
bin	6.74207721e-005	10360
bin	8.24031659e-005	3289
bin	9.73855597e-005	3106
bin	0.0001123679535	2981
bin	0.0001273503473	2882
bin	0.0001423327411	2560
bin	0.0001573151349	1735
bin	0.0001722975287	1169
bin	0.0001872799225	932
bin	0.0002022623163	773
bin	0.0002172447101	684
bin	0.0002322271039	541
bin	0.0002472094977	385
bin	0.0002621918915	300
bin	0.0002771742853	253
bin	0.0002921566791	201
bin	0.0003071390729	160
bin	0.0003221214667	116
bin	0.0003371038605	468
scalar StarLAN.router.eth[7].queue.dataQueue dropPk:count 4
attr interpolationmode none
attr source dropPkByQueue
attr title "dropped packets, count"
scalar StarLAN.router.eth[7].queue.dataQueue dropPk:sum(packetBytes) 2659
attr interpolationmode none
attr source dropPkByQueue
attr title "dropped packets, sum(packetBytes)"
scalar StarLAN.router.eth[7].queue.dataQueue rcvdPk:count 106216
attr interpolationmode none
attr title "received packets, count"
scalar StarLAN.router.eth[7].queue.dataQueue rcvdPk:sum(packetBytes) 77078935
attr interpolationmode none
attr title "received packets, sum(packetBytes)"
scalar StarLAN.router.eth[7].mac "simulated time" 20
scalar StarLAN.router.eth[7].mac full-duplex 1
scalar StarLAN.router.eth[7].mac "frames/sec sent" 6983.15
scalar StarLAN.router.eth[7].mac "frames/sec rcvd" 6981.95
scalar StarLAN.router.eth[7].mac "bits/sec sent" 40544991.2
scalar StarLAN.router.eth[7].mac "bits/sec rcvd" 40547572.4
scalar StarLAN.router.eth[7].mac "rx channel idle (%)" 59.0055828
scalar StarLAN.router.eth[7].mac "rx channel utilization (%)" 40.9944172
scalar StarLAN.router.eth[7].mac "rx channel collision (%)" 0
scalar StarLAN.router.eth[7].mac collisions 0
scalar StarLAN.router.eth[7].mac backoffs 0
scalar StarLAN.router.eth[7].mac backoff:count 0
attr interpolationmode none
attr title "backoff, count"
scalar StarLAN.router.eth[7].mac collision:count 0
attr interpolationmode none
attr title "collision, count"
scalar StarLAN.router.eth[7].mac rxPkFromHL:count 106212
attr interpolationmode none
attr source rxPkFromHL
attr title "packet bytes from higher layer, count"
scalar StarLAN.router.eth[7].mac rxPkFromHL:sum(packetBytes) 77076276
attr interpolationmode none
attr source rxPkFromHL
attr title "packet bytes from higher layer, sum(packetBytes)"
scalar StarLAN.router.eth[7].mac rxPausePkUnits:count 0
attr interpolationmode none
attr title "pause units received, count"
scalar StarLAN.router.eth[7].mac rxPausePkUnits:sum 0
attr interpolationmode none
attr title "pause units received, sum"
scalar StarLAN.router.eth[7].mac txPausePkUnits:count 0
attr interpolationmode none
attr title "pause units sent, count"
scalar StarLAN.router.eth[7].mac txPausePkUnits:sum 0
attr interpolationmode none
attr title "pause units sent, sum"
scalar StarLAN.router.eth[7].mac txPk:count 106212
attr interpolationmode none
attr source txPk
attr title "packets transmitted, count"
scalar StarLAN.router.eth[7].mac txPk:sum(packetBytes) 77076276
attr interpolationmode none
attr source txPk
attr title "packets transmitted, sum(packetBytes)"
scalar StarLAN.router.eth[7].mac droppedPkNotForUs:count 0
attr interpolationmode none
attr source dropPkNotForUs
attr title "packets dropped/not for us, count"
scalar StarLAN.router.eth[7].mac droppedPkNotForUs:sum(packetBytes) 0
attr interpolationmode none
attr source dropPkNotForUs
attr title "packets dropped/not for us, sum(packetBytes)"
scalar StarLAN.router.eth[7].mac droppedPkBitError:count 0
attr interpolationmode none
attr source dropPkBitError
attr title "packets dropped/bit error, count"
scalar StarLAN.router.eth[7].mac droppedPkBitError:sum(packetBytes) 0
attr interpolationmode none
attr source dropPkBitError
attr title "packets dropped/bit error, sum(packetBytes)"
scalar StarLAN.router.eth[7].mac droppedPkIfaceDown:count 0
attr interpolationmode none
attr source dropPkIfaceDown
attr title "packets dropped/interface down, count"
scalar StarLAN.router.eth[7].mac droppedPkIfaceDown:sum(packetBytes) 0
attr interpolationmode none
attr source dropPkIfaceDown
attr title "packets dropped/interface down, sum(packetBytes)"
scalar StarLAN.router.eth[7].mac rxPkOk:count 106222
attr interpolationmode none
attr source rxPkOk
attr title "packets received OK, count"
scalar StarLAN.router.eth[7].mac rxPkOk:sum(packetBytes) 77084216
attr interpolationmode none
attr source rxPkOk
attr title "packets received OK, sum(packetBytes)"
scalar StarLAN.router.eth[7].mac passedUpPk:count 106222
attr interpolationmode none
attr source packetSentToUpper
attr title "packets passed to higher layer, count"
scalar StarLAN.router.eth[7].mac passedUpPk:sum(packetBytes) 77084216
attr interpolationmode none
attr source packetSentToUpper
attr title "packets passed to higher layer, sum(packetBytes)"
scalar StarLAN.router.eth[8].queue.pauseQueue queueLength:max nan
attr interpolationmode sample-hold
attr title "queue length, max"
scalar StarLAN.router.eth[8].queue.pauseQueue queueLength:timeavg nan
attr interpolationmode sample-hold
attr title "queue length, timeavg"
statistic StarLAN.router.eth[8].queue.pauseQueue queueingTime:histogram
field count 0
field mean nan
field stddev nan
field min nan
field max nan
field sum 0
field sqrsum 0
attr interpolationmode none
attr title "queueing time, histogram"
bin	-inf	0
bin	-0.5	0
bin	-0.46666666666667	0
bin	-0.43333333333333	0
bin	-0.4	0
bin	-0.36666666666667	0
bin	-0.33333333333333	0
bin	-0.3	0
bin	-0.26666666666667	0
bin	-0.23333333333333	0
bin	-0.2	0
bin	-0.16666666666667	0
bin	-0.13333333333333	0
bin	-0.1	0
bin	-0.066666666666667	0
bin	-0.033333333333333	0
bin	0	0
bin	0.033333333333333	0
bin	0.066666666666667	0
bin	0.1	0
bin	0.13333333333333	0
bin	0.16666666666667	0
bin	0.2	0
bin	0.23333333333333	0
bin	0.26666666666667	0
bin	0.3	0
bin	0.33333333333333	0
bin	0.36666666666667	0
bin	0.4	0
bin	0.43333333333333	0
bin	0.46666666666667	0
bin	0.5	0
scalar StarLAN.router.eth[8].queue.pauseQueue dropPk:count 0
attr interpolationmode none
attr source dropPkByQueue
attr title "dropped packets, count"
scalar StarLAN.router.eth[8].queue.pauseQueue dropPk:sum(packetBytes) 0
attr interpolationmode none
attr source dropPkByQueue
attr title "dropped packets, sum(packetBytes)"
scalar StarLAN.router.eth[8].queue.pauseQueue rcvdPk:count 0
attr interpolationmode none
attr title "received packets, count"
scalar StarLAN.router.eth[8].queue.pauseQueue rcvdPk:sum(packetBytes) 0
attr interpolationmode none
attr title "received packets, sum(packetBytes)"
scalar StarLAN.router.eth[8].queue.dataQueue queueLength:max 10
attr interpolationmode sample-hold
attr title "queue length, max"
scalar StarLAN.router.eth[8].queue.dataQueue queueLength:timeavg 0.37663407921841
attr interpolationmode sample-hold
attr title "queue length, timeavg"
statistic StarLAN.router.eth[8].queue.dataQueue queueingTime:histogram
field count 106592
field mean 5.3001550399355e-005
field stddev 6.7973829331225e-005
field min 0
field max 0.000670174662
field sum 5.6495412601681
field sqrsum 0.00079193192298389
attr interpolationmode none
attr title "queueing time, histogram"
bin	-inf	0
bin	-0.0001555427555	0
bin	-0.00013480372143333	0
bin	-0.00011406468736667	0
bin	-9.33256533e-005	0
bin	-7.2586619233333e-005	0
bin	-5.1847585166667e-005	0
bin	-3.11085511e-005	0
bin	-1.0369517033333e-005	44324
bin	1.0369517033333e-005	8324
bin	3.11085511e-005	9520
bin	5.1847585166667e-005	14132
bin	7.2586619233333e-005	9489
bin	9.33256533e-005	4426
bin	0.00011406468736667	4110
bin	0.00013480372143333	3712
bin	0.0001555427555	2473
bin	0.00017628178956667	1529
bin	0.00019702082363333	1188
bin	0.0002177598577	917
bin	0.00023849889176667	665
bin	0.00025923792583333	453
bin	0.0002799769599	329
bin	0.00030071599396667	282
bin	0.00032145502803333	186
bin	0.0003421940621	126
bin	0.00036293309616667	95
bin	0.00038367213023333	78
bin	0.0004044111643	52
bin	0.00042515019836667	36
bin	0.00044588923243333	27
bin	0.0004666282665	119
scalar StarLAN.router.eth[8].queue.dataQueue dropPk:count 24
attr interpolationmode none
attr source dropPkByQueue
attr title "dropped packets, count"
scalar StarLAN.router.eth[8].queue.dataQueue dropPk:sum(packetBytes) 14384
attr interpolationmode none
attr source dropPkByQueue
attr title "dropped packets, sum(packetBytes)"
scalar StarLAN.router.eth[8].queue.dataQueue rcvdPk:count 106615
attr interpolationmode none
attr title "received packets, count"
scalar StarLAN.router.eth[8].queue.dataQueue rcvdPk:sum(packetBytes) 76630991
attr interpolationmode none
attr title "received packets, sum(packetBytes)"
scalar StarLAN.router.eth[8].mac "simulated time" 20
scalar StarLAN.router.eth[8].mac full-duplex 1
scalar StarLAN.router.eth[8].mac "frames/sec sent" 7031.2
scalar StarLAN.router.eth[8].mac "frames/sec rcvd" 7030.3
scalar StarLAN.router.eth[8].mac "bits/sec sent" 40420841.6
scalar StarLAN.router.eth[8].mac "bits/sec rcvd" 40423797.2
scalar StarLAN.router.eth[8].mac "rx channel idle (%)" 59.1262636
scalar StarLAN.router.eth[8].mac "rx channel utilization (%)" 40.8737364
scalar StarLAN.router.eth[8].mac "rx channel collision (%)" 0
scalar StarLAN.router.eth[8].mac collisions 0
scalar StarLAN.router.eth[8].mac backoffs 0
scalar StarLAN.router.eth[8].mac backoff:count 0
attr interpolationmode none
attr title "backoff, count"
scalar StarLAN.router.eth[8].mac collision:count 0
attr interpolationmode none
attr title "collision, count"
scalar StarLAN.router.eth[8].mac rxPkFromHL:count 106592
attr interpolationmode none
attr source rxPkFromHL
attr title "packet bytes from higher layer, count"
scalar StarLAN.router.eth[8].mac rxPkFromHL:sum(packetBytes) 76617037
attr interpolationmode none
attr source rxPkFromHL
attr title "packet bytes from higher layer, sum(packetBytes)"
scalar StarLAN.router.eth[8].mac rxPausePkUnits:count 0
attr interpolationmode none
attr title "pause units received, count"
scalar StarLAN.router.eth[8].mac rxPausePkUnits:sum 0
attr interpolationmode none
attr title "pause units received, sum"
scalar StarLAN.router.eth[8].mac txPausePkUnits:count 0
attr interpolationmode none
attr title "pause units sent, count"
scalar StarLAN.router.eth[8].mac txPausePkUnits:sum 0
attr interpolationmode none
attr title "pause units sent, sum"
scalar StarLAN.router.eth[8].mac txPk:count 106592
attr interpolationmode none
attr source txPk
attr title "packets transmitted, count"
scalar StarLAN.router.eth[8].mac txPk:sum(packetBytes) 76617696
attr interpolationmode none
attr source txPk
attr title "packets transmitted, sum(packetBytes)"
scalar StarLAN.router.eth[8].mac droppedPkNotForUs:count 0
attr interpolationmode none
attr source dropPkNotForUs
attr title "packets dropped/not for us, count"
scalar StarLAN.router.eth[8].mac droppedPkNotForUs:sum(packetBytes) 0
attr interpolationmode none
attr source dropPkNotForUs
attr title "packets dropped/not for us, sum(packetBytes)"
scalar StarLAN.router.eth[8].mac droppedPkBitError:count 0
attr interpolationmode none
attr source dropPkBitError
attr title "packets dropped/bit error, count"
scalar StarLAN.router.eth[8].mac droppedPkBitError:sum(packetBytes) 0
attr interpolationmode none
attr source dropPkBitError
attr title "packets dropped/bit error, sum(packetBytes)"
scalar StarLAN.router.eth[8].mac droppedPkIfaceDown:count 0
attr interpolationmode none
attr source dropPkIfaceDown
attr title "packets dropped/interface down, count"
scalar StarLAN.router.eth[8].mac droppedPkIfaceDown:sum(packetBytes) 0
attr interpolationmode none
attr source dropPkIfaceDown
attr title "packets dropped/interface down, sum(packetBytes)"
scalar StarLAN.router.eth[8].mac rxPkOk:count 106600
attr interpolationmode none
attr source rxPkOk
attr title "packets received OK, count"
scalar StarLAN.router.eth[8].mac rxPkOk:sum(packetBytes) 76620112
attr interpolationmode none
attr source rxPkOk
attr title "packets received OK, sum(packetBytes)"
scalar StarLAN.router.eth[8].mac passedUpPk:count 106600
attr interpolationmode none
attr source packetSentToUpper
attr title "packets passed to higher layer, count"
scalar StarLAN.router.eth[8].mac passedUpPk:sum(packetBytes) 76620112
attr interpolationmode none
attr source packetSentToUpper
attr title "packets passed to higher layer, sum(packetBytes)"
scalar StarLAN.router.eth[9].queue.pauseQueue queueLength:max nan
attr interpolationmode sample-hold
attr title "queue length, max"
scalar StarLAN.router.eth[9].queue.pauseQueue queueLength:timeavg nan
attr interpolationmode sample-hold
attr title "queue length, timeavg"
statistic StarLAN.router.eth[9].queue.pauseQueue queueingTime:histogram
field count 0
field mean nan
field stddev nan
field min nan
field max nan
field sum 0
field sqrsum 0
attr interpolationmode none
attr title "queueing time, histogram"
bin	-inf	0
bin	-0.5	0
bin	-0.46666666666667	0
bin	-0.43333333333333	0
bin	-0.4	0
bin	-0.36666666666667	0
bin	-0.33333333333333	0
bin	-0.3	0
bin	-0.26666666666667	0
bin	-0.23333333333333	0
bin	-0.2	0
bin	-0.16666666666667	0
bin	-0.13333333333333	0
bin	-0.1	0
bin	-0.066666666666667	0
bin	-0.033333333333333	0
bin	0	0
bin	0.033333333333333	0
bin	0.066666666666667	0
bin	0.1	0
bin	0.13333333333333	0
bin	0.16666666666667	0
bin	0.2	0
bin	0.23333333333333	0
bin	0.26666666666667	0
bin	0.3	0
bin	0.33333333333333	0
bin	0.36666666666667	0
bin	0.4	0
bin	0.43333333333333	0
bin	0.46666666666667	0
bin	0.5	0
scalar StarLAN.router.eth[9].queue.pauseQueue dropPk:count 0
attr interpolationmode none
attr source dropPkByQueue
attr title "dropped packets, count"
scalar StarLAN.router.eth[9].queue.pauseQueue dropPk:sum(packetBytes) 0
attr interpolationmode none
attr source dropPkByQueue
attr title "dropped packets, sum(packetBytes)"
scalar StarLAN.router.eth[9].queue.pauseQueue rcvdPk:count 0
attr interpolationmode none
attr title "received packets, count"
scalar StarLAN.router.eth[9].queue.pauseQueue rcvdPk:sum(packetBytes) 0
attr interpolationmode none
attr title "received packets, sum(packetBytes)"
scalar StarLAN.router.eth[9].queue.dataQueue queueLength:max 10
attr interpolationmode sample-hold
attr title "queue length, max"
scalar StarLAN.router.eth[9].queue.dataQueue queueLength:timeavg 0.36448466596146
attr interpolationmode sample-hold
attr title "queue length, timeavg"
statistic StarLAN.router.eth[9].queue.dataQueue queueingTime:histogram
field count 105576
field mean 5.1786127734702e-005
field stddev 6.5585711523329e-005
field min 0
field max 0.00064506343
field sum 5.4673722217189
field sqrsum 0.00073726337382404
attr interpolationmode none
attr title "queueing time, histogram"
bin	-inf	0
bin	-0.00012728	0
bin	-0.00011030933333333	0
bin	-9.3338666666667e-005	0
bin	-7.6368e-005	0
bin	-5.9397333333333e-005	0
bin	-4.2426666666667e-005	0
bin	-2.5456e-005	0
bin	-8.4853333333333e-006	43720
bin	8.4853333333333e-006	5307
bin	2.5456e-005	7209
bin	4.2426666666667e-005	11095
bin	5.9397333333333e-005	12852
bin	7.6368e-005	5539
bin	9.3338666666667e-005	3489
bin	0.00011030933333333	3340
bin	0.00012728	3220
bin	0.00014425066666667	2656
bin	0.00016122133333333	1622
bin	0.000178192	1153
bin	0.00019516266666667	1010
bin	0.00021213333333333	761
bin	0.000229104	631
bin	0.00024607466666667	456
bin	0.00026304533333333	357
bin	0.000280016	271
bin	0.00029698666666667	219
bin	0.00031395733333333	161
bin	0.000330928	115
bin	0.00034789866666667	95
bin	0.00036486933333333	89
bin	0.00038184	209
scalar StarLAN.router.eth[9].queue.dataQueue dropPk:count 2
attr interpolationmode none
attr source dropPkByQueue
attr title "dropped packets, count"
scalar StarLAN.router.eth[9].queue.dataQueue dropPk:sum(packetBytes) 1879
attr interpolationmode none
attr source dropPkByQueue
attr title "dropped packets, sum(packetBytes)"
scalar StarLAN.router.eth[9].queue.dataQueue rcvdPk:count 105576
attr interpolationmode none
attr title "received packets, count"
scalar StarLAN.router.eth[9].queue.dataQueue rcvdPk:sum(packetBytes) 75436560
attr interpolationmode none
attr title "received packets, sum(packetBytes)"
scalar StarLAN.router.eth[9].mac "simulated time" 20
scalar StarLAN.router.eth[9].mac full-duplex 1
scalar StarLAN.router.eth[9].mac "frames/sec sent" 6967.9
scalar StarLAN.router.eth[9].mac "frames/sec rcvd" 6965.75
scalar StarLAN.router.eth[9].mac "bits/sec sent" 39798660.8
scalar StarLAN.router.eth[9].mac "bits/sec rcvd" 39795056.8
scalar StarLAN.router.eth[9].mac "rx channel idle (%)" 59.7591352
scalar StarLAN.router.eth[9].mac "rx channel utilization (%)" 40.2408648
scalar StarLAN.router.eth[9].mac "rx channel collision (%)" 0
scalar StarLAN.router.eth[9].mac collisions 0
scalar StarLAN.router.eth[9].mac backoffs 0
scalar StarLAN.router.eth[9].mac backoff:count 0
attr interpolationmode none
attr title "backoff, count"
scalar StarLAN.router.eth[9].mac collision:count 0
attr interpolationmode none
attr title "collision, count"
scalar StarLAN.router.eth[9].mac rxPkFromHL:count 105576
attr interpolationmode none
attr source rxPkFromHL
attr title "packet bytes from higher layer, count"
scalar StarLAN.router.eth[9].mac rxPkFromHL:sum(packetBytes) 75436245
attr interpolationmode none
attr source rxPkFromHL
attr title "packet bytes from higher layer, sum(packetBytes)"
scalar StarLAN.router.eth[9].mac rxPausePkUnits:count 0
attr interpolationmode none
attr title "pause units received, count"
scalar StarLAN.router.eth[9].mac rxPausePkUnits:sum 0
attr interpolationmode none
attr title "pause units received, sum"
scalar StarLAN.router.eth[9].mac txPausePkUnits:count 0
attr interpolationmode none
attr title "pause units sent, count"
scalar StarLAN.router.eth[9].mac txPausePkUnits:sum 0
attr interpolationmode none
attr title "pause units sent, sum"
scalar StarLAN.router.eth[9].mac txPk:count 105576
attr interpolationmode none
attr source txPk
attr title "packets transmitted, count"
scalar StarLAN.router.eth[9].mac txPk:sum(packetBytes) 75436209
attr interpolationmode none
attr source txPk
attr title "packets transmitted, sum(packetBytes)"
scalar StarLAN.router.eth[9].mac droppedPkNotForUs:count 0
attr interpolationmode none
attr source dropPkNotForUs
attr title "packets dropped/not for us, count"
scalar StarLAN.router.eth[9].mac droppedPkNotForUs:sum(packetBytes) 0
attr interpolationmode none
attr source dropPkNotForUs
attr title "packets dropped/not for us, sum(packetBytes)"
scalar StarLAN.router.eth[9].mac droppedPkBitError:count 0
attr interpolationmode none
attr source dropPkBitError
attr title "packets dropped/bit error, count"
scalar StarLAN.router.eth[9].mac droppedPkBitError:sum(packetBytes) 0
attr interpolationmode none
attr source dropPkBitError
attr title "packets dropped/bit error, sum(packetBytes)"
scalar StarLAN.router.eth[9].mac droppedPkIfaceDown:count 0
attr interpolationmode none
attr source dropPkIfaceDown
attr title "packets dropped/interface down, count"
scalar StarLAN.router.eth[9].mac droppedPkIfaceDown:sum(packetBytes) 0
attr interpolationmode none
attr source dropPkIfaceDown
attr title "packets dropped/interface down, sum(packetBytes)"
scalar StarLAN.router.eth[9].mac rxPkOk:count 105572
attr interpolationmode none
attr source rxPkOk
attr title "packets received OK, count"
scalar StarLAN.router.eth[9].mac rxPkOk:sum(packetBytes) 75434014
attr interpolationmode none
attr source rxPkOk
attr title "packets received OK, sum(packetBytes)"
scalar StarLAN.router.eth[9].mac passedUpPk:count 105572
attr interpolationmode none
attr source packetSentToUpper
attr title "packets passed to higher layer, count"
scalar StarLAN.router.eth[9].mac passedUpPk:sum(packetBytes) 75434014
attr interpolationmode none
attr source packetSentToUpper
attr title "packets passed to higher layer, sum(packetBytes)"

