version 2
run StarLAN10-packetsize-1-20180110-19:21:14-1368
attr configname StarLAN10-packetsize
attr datetime 20180110-19:21:14
attr experiment StarLAN10-packetsize
attr inifile StarLAN.ini
attr iterationvars $pa=16
attr iterationvarsf pa=16-
attr measurement $pa=16
attr network StarLAN
attr processid 1368
attr repetition 0
attr replication #0
attr resultdir results
attr runnumber 1
attr seedset 1
itervar pa 16
param *.numHosts 10
param **.datarate 10Mbps
param **.host[*].pingApp[*].sendInterval "truncnormal(50ms, 25ms)"
param **.host[*].pingApp[*].packetSize "truncnormal(512B, 256B)"
param **.queueType "\"DropTailQueue\""
param **.frameCapacity 10
param **.mtu 1024B
param **.host[*].numPingApps 16
param **.host[*].pingApp[*].typename "\"PingApp\""
param **.host[*].pingApp[*].count 1
param **.host[*].pingApp[*].startTime "truncnormal(200ms, 100ms)"
param **.host[*].pingApp[*].destAddr "\"*\""

scalar StarLAN.host[0].networkLayer.arp sentReply:count 0
attr title "ARP replies sent, count"
scalar StarLAN.host[0].networkLayer.arp sentReq:count 0
attr title "ARP request sent, count"
scalar StarLAN.host[0].networkLayer.arp failedARPResolution:count 0
attr title "ARP failed resolutions, count"
scalar StarLAN.host[0].networkLayer.arp completedARPResolution:count 0
attr title "ARP completed resolutions, count"
scalar StarLAN.host[0].networkLayer.arp initiatedARPResolution:count 0
attr title "ARP initiated resolutions, count"
scalar StarLAN.host[0].lo0.lo droppedPkBitError:count 0
attr interpolationmode none
attr source dropPkBitError
attr title "packets dropped/bit error, count"
scalar StarLAN.host[0].lo0.lo droppedPkBitError:sum(packetBytes) 0
attr interpolationmode none
attr source dropPkBitError
attr title "packets dropped/bit error, sum(packetBytes)"
scalar StarLAN.host[0].lo0.lo rcvdPkFromHL:count 926
attr interpolationmode none
attr source packetReceivedFromUpper
attr title "packets received from higher layer, count"
scalar StarLAN.host[0].lo0.lo rcvdPkFromHL:sum(packetBytes) 527372
attr interpolationmode none
attr source packetReceivedFromUpper
attr title "packets received from higher layer, sum(packetBytes)"
scalar StarLAN.host[0].lo0.lo passedUpPk:count 926
attr interpolationmode none
attr source packetSentToUpper
attr title "packets passed to higher layer, count"
scalar StarLAN.host[0].lo0.lo passedUpPk:sum(packetBytes) 527372
attr interpolationmode none
attr source packetSentToUpper
attr title "packets passed to higher layer, sum(packetBytes)"
scalar StarLAN.host[0].eth[0].queue.pauseQueue queueLength:max nan
attr interpolationmode sample-hold
attr title "queue length, max"
scalar StarLAN.host[0].eth[0].queue.pauseQueue queueLength:timeavg nan
attr interpolationmode sample-hold
attr title "queue length, timeavg"
statistic StarLAN.host[0].eth[0].queue.pauseQueue queueingTime:histogram
field count 0
field mean nan
field stddev nan
field min nan
field max nan
field sum 0
field sqrsum 0
attr interpolationmode none
attr title "queueing time, histogram"
bin	-inf	0
bin	-0.5	0
bin	-0.46666666666667	0
bin	-0.43333333333333	0
bin	-0.4	0
bin	-0.36666666666667	0
bin	-0.33333333333333	0
bin	-0.3	0
bin	-0.26666666666667	0
bin	-0.23333333333333	0
bin	-0.2	0
bin	-0.16666666666667	0
bin	-0.13333333333333	0
bin	-0.1	0
bin	-0.066666666666667	0
bin	-0.033333333333333	0
bin	0	0
bin	0.033333333333333	0
bin	0.066666666666667	0
bin	0.1	0
bin	0.13333333333333	0
bin	0.16666666666667	0
bin	0.2	0
bin	0.23333333333333	0
bin	0.26666666666667	0
bin	0.3	0
bin	0.33333333333333	0
bin	0.36666666666667	0
bin	0.4	0
bin	0.43333333333333	0
bin	0.46666666666667	0
bin	0.5	0
scalar StarLAN.host[0].eth[0].queue.pauseQueue dropPk:count 0
attr interpolationmode none
attr source dropPkByQueue
attr title "dropped packets, count"
scalar StarLAN.host[0].eth[0].queue.pauseQueue dropPk:sum(packetBytes) 0
attr interpolationmode none
attr source dropPkByQueue
attr title "dropped packets, sum(packetBytes)"
scalar StarLAN.host[0].eth[0].queue.pauseQueue rcvdPk:count 0
attr interpolationmode none
attr title "received packets, count"
scalar StarLAN.host[0].eth[0].queue.pauseQueue rcvdPk:sum(packetBytes) 0
attr interpolationmode none
attr title "received packets, sum(packetBytes)"
scalar StarLAN.host[0].eth[0].queue.dataQueue queueLength:max 4
attr interpolationmode sample-hold
attr title "queue length, max"
scalar StarLAN.host[0].eth[0].queue.dataQueue queueLength:timeavg 0.061910608303792
attr interpolationmode sample-hold
attr title "queue length, timeavg"
statistic StarLAN.host[0].eth[0].queue.dataQueue queueingTime:histogram
field count 8627
field mean 0.00010762576315011
field stddev 0.00023489825355711
field min 0
field max 0.00187847496
field sum 0.928487458696
field sqrsum 0.00057588760815302
attr interpolationmode none
attr title "queueing time, histogram"
bin	-inf	0
bin	-0.0005936	0
bin	-0.00051445333333333	0
bin	-0.00043530666666667	0
bin	-0.00035616	0
bin	-0.00027701333333333	0
bin	-0.00019786666666667	0
bin	-0.00011872	0
bin	-3.9573333333333e-005	6407
bin	3.9573333333333e-005	304
bin	0.00011872	300
bin	0.00019786666666667	278
bin	0.00027701333333333	264
bin	0.00035616	210
bin	0.00043530666666667	177
bin	0.00051445333333333	136
bin	0.0005936	119
bin	0.00067274666666667	61
bin	0.00075189333333333	46
bin	0.00083104	198
bin	0.00091018666666667	35
bin	0.00098933333333333	30
bin	0.00106848	18
bin	0.0011476266666667	24
bin	0.0012267733333333	6
bin	0.00130592	4
bin	0.0013850666666667	3
bin	0.0014642133333333	3
bin	0.00154336	1
bin	0.0016225066666667	1
bin	0.0017016533333333	1
bin	0.0017808	1
scalar StarLAN.host[0].eth[0].queue.dataQueue dropPk:count 0
attr interpolationmode none
attr source dropPkByQueue
attr title "dropped packets, count"
scalar StarLAN.host[0].eth[0].queue.dataQueue dropPk:sum(packetBytes) 0
attr interpolationmode none
attr source dropPkByQueue
attr title "dropped packets, sum(packetBytes)"
scalar StarLAN.host[0].eth[0].queue.dataQueue rcvdPk:count 8627
attr interpolationmode none
attr title "received packets, count"
scalar StarLAN.host[0].eth[0].queue.dataQueue rcvdPk:sum(packetBytes) 4863373
attr interpolationmode none
attr title "received packets, sum(packetBytes)"
scalar StarLAN.host[0].eth[0].mac "simulated time" 20
scalar StarLAN.host[0].eth[0].mac full-duplex 1
scalar StarLAN.host[0].eth[0].mac "frames/sec sent" 578.8
scalar StarLAN.host[0].eth[0].mac "frames/sec rcvd" 580.6
scalar StarLAN.host[0].eth[0].mac "bits/sec sent" 2601696.4
scalar StarLAN.host[0].eth[0].mac "bits/sec rcvd" 2602618
scalar StarLAN.host[0].eth[0].mac "rx channel idle (%)" 73.602236
scalar StarLAN.host[0].eth[0].mac "rx channel utilization (%)" 26.397764
scalar StarLAN.host[0].eth[0].mac rxPkFromHL:count 8627
attr interpolationmode none
attr source rxPkFromHL
attr title "packet bytes from higher layer, count"
scalar StarLAN.host[0].eth[0].mac rxPkFromHL:sum(packetBytes) 4863373
attr interpolationmode none
attr source rxPkFromHL
attr title "packet bytes from higher layer, sum(packetBytes)"
scalar StarLAN.host[0].eth[0].mac rxPausePkUnits:count 0
attr interpolationmode none
attr title "pause units received, count"
scalar StarLAN.host[0].eth[0].mac rxPausePkUnits:sum 0
attr interpolationmode none
attr title "pause units received, sum"
scalar StarLAN.host[0].eth[0].mac txPausePkUnits:count 0
attr interpolationmode none
attr title "pause units sent, count"
scalar StarLAN.host[0].eth[0].mac txPausePkUnits:sum 0
attr interpolationmode none
attr title "pause units sent, sum"
scalar StarLAN.host[0].eth[0].mac txPk:count 8627
attr interpolationmode none
attr source txPk
attr title "packets transmitted, count"
scalar StarLAN.host[0].eth[0].mac txPk:sum(packetBytes) 4863373
attr interpolationmode none
attr source txPk
attr title "packets transmitted, sum(packetBytes)"
scalar StarLAN.host[0].eth[0].mac droppedPkNotForUs:count 0
attr interpolationmode none
attr source dropPkNotForUs
attr title "packets dropped/not for us, count"
scalar StarLAN.host[0].eth[0].mac droppedPkNotForUs:sum(packetBytes) 0
attr interpolationmode none
attr source dropPkNotForUs
attr title "packets dropped/not for us, sum(packetBytes)"
scalar StarLAN.host[0].eth[0].mac droppedPkBitError:count 0
attr interpolationmode none
attr source dropPkBitError
attr title "packets dropped/bit error, count"
scalar StarLAN.host[0].eth[0].mac droppedPkBitError:sum(packetBytes) 0
attr interpolationmode none
attr source dropPkBitError
attr title "packets dropped/bit error, sum(packetBytes)"
scalar StarLAN.host[0].eth[0].mac droppedPkIfaceDown:count 0
attr interpolationmode none
attr source dropPkIfaceDown
attr title "packets dropped/interface down, count"
scalar StarLAN.host[0].eth[0].mac droppedPkIfaceDown:sum(packetBytes) 0
attr interpolationmode none
attr source dropPkIfaceDown
attr title "packets dropped/interface down, sum(packetBytes)"
scalar StarLAN.host[0].eth[0].mac rxPkOk:count 8628
attr interpolationmode none
attr source rxPkOk
attr title "packets received OK, count"
scalar StarLAN.host[0].eth[0].mac rxPkOk:sum(packetBytes) 4863805
attr interpolationmode none
attr source rxPkOk
attr title "packets received OK, sum(packetBytes)"
scalar StarLAN.host[0].eth[0].mac passedUpPk:count 8628
attr interpolationmode none
attr source packetSentToUpper
attr title "packets passed to higher layer, count"
scalar StarLAN.host[0].eth[0].mac passedUpPk:sum(packetBytes) 4863805
attr interpolationmode none
attr source packetSentToUpper
attr title "packets passed to higher layer, sum(packetBytes)"
scalar StarLAN.host[0].eth[0].encap pauseSent:count 0
attr title "pause sent, count"
scalar StarLAN.host[0].eth[0].encap pauseSent:sum 0
attr title "pause sent, sum"
scalar StarLAN.host[0].eth[0].encap decapPk:count 8628
attr interpolationmode none
attr source decapPk
attr title "packets decapsulated, count"
scalar StarLAN.host[0].eth[0].encap decapPk:sum(packetBytes) 4707593
attr interpolationmode none
attr source decapPk
attr title "packets decapsulated, sum(packetBytes)"
scalar StarLAN.host[0].eth[0].encap encapPk:count 8627
attr interpolationmode none
attr source encapPk
attr title "packets encapsulated, count"
scalar StarLAN.host[0].eth[0].encap encapPk:sum(packetBytes) 4707179
attr interpolationmode none
attr source encapPk
attr title "packets encapsulated, sum(packetBytes)"
scalar StarLAN.host[0].pingApp[0] "Pings sent" 375
scalar StarLAN.host[0].pingApp[0] "ping loss rate (%)" 0
scalar StarLAN.host[0].pingApp[0] "ping out-of-order rate (%)" 0
scalar StarLAN.host[0].pingApp[0] pingRxSeq:count 287
attr interpolationmode none
attr title "ping rx seq, count"
scalar StarLAN.host[0].pingApp[0] pingTxSeq:count 287
attr interpolationmode none
attr title "ping tx seq, count"
scalar StarLAN.host[0].pingApp[0] numOutOfOrderArrivals:last nan
attr interpolationmode none
attr title "ping out-of-order arrivals, last"
scalar StarLAN.host[0].pingApp[0] numLost:last nan
attr interpolationmode none
attr title "pings lost, last"
scalar StarLAN.host[0].pingApp[0] rtt:mean 0.0029495109489961
attr interpolationmode none
attr title "ping round-trip time, mean"
attr unit s
scalar StarLAN.host[0].pingApp[1] "Pings sent" 393
scalar StarLAN.host[0].pingApp[1] "ping loss rate (%)" 0
scalar StarLAN.host[0].pingApp[1] "ping out-of-order rate (%)" 0
scalar StarLAN.host[0].pingApp[1] pingRxSeq:count 308
attr interpolationmode none
attr title "ping rx seq, count"
scalar StarLAN.host[0].pingApp[1] pingTxSeq:count 308
attr interpolationmode none
attr title "ping tx seq, count"
scalar StarLAN.host[0].pingApp[1] numOutOfOrderArrivals:last nan
attr interpolationmode none
attr title "ping out-of-order arrivals, last"
scalar StarLAN.host[0].pingApp[1] numLost:last nan
attr interpolationmode none
attr title "pings lost, last"
scalar StarLAN.host[0].pingApp[1] rtt:mean 0.0021526972717986
attr interpolationmode none
attr title "ping round-trip time, mean"
attr unit s
scalar StarLAN.host[0].pingApp[2] "Pings sent" 403
scalar StarLAN.host[0].pingApp[2] "ping loss rate (%)" 0
scalar StarLAN.host[0].pingApp[2] "ping out-of-order rate (%)" 0
scalar StarLAN.host[0].pingApp[2] pingRxSeq:count 307
attr interpolationmode none
attr title "ping rx seq, count"
scalar StarLAN.host[0].pingApp[2] pingTxSeq:count 307
attr interpolationmode none
attr title "ping tx seq, count"
scalar StarLAN.host[0].pingApp[2] numOutOfOrderArrivals:last nan
attr interpolationmode none
attr title "ping out-of-order arrivals, last"
scalar StarLAN.host[0].pingApp[2] numLost:last nan
attr interpolationmode none
attr title "pings lost, last"
scalar StarLAN.host[0].pingApp[2] rtt:mean 0.0021955623651648
attr interpolationmode none
attr title "ping round-trip time, mean"
attr unit s
scalar StarLAN.host[0].pingApp[3] "Pings sent" 387
scalar StarLAN.host[0].pingApp[3] "ping loss rate (%)" 0
scalar StarLAN.host[0].pingApp[3] "ping out-of-order rate (%)" 0
scalar StarLAN.host[0].pingApp[3] pingRxSeq:count 291
attr interpolationmode none
attr title "ping rx seq, count"
scalar StarLAN.host[0].pingApp[3] pingTxSeq:count 290
attr interpolationmode none
attr title "ping tx seq, count"
scalar StarLAN.host[0].pingApp[3] numOutOfOrderArrivals:last nan
attr interpolationmode none
attr title "ping out-of-order arrivals, last"
scalar StarLAN.host[0].pingApp[3] numLost:last nan
attr interpolationmode none
attr title "pings lost, last"
scalar StarLAN.host[0].pingApp[3] rtt:mean 0.0018098193357879
attr interpolationmode none
attr title "ping round-trip time, mean"
attr unit s
scalar StarLAN.host[0].pingApp[4] "Pings sent" 383
scalar StarLAN.host[0].pingApp[4] "ping loss rate (%)" 0
scalar StarLAN.host[0].pingApp[4] "ping out-of-order rate (%)" 0
scalar StarLAN.host[0].pingApp[4] pingRxSeq:count 289
attr interpolationmode none
attr title "ping rx seq, count"
scalar StarLAN.host[0].pingApp[4] pingTxSeq:count 289
attr interpolationmode none
attr title "ping tx seq, count"
scalar StarLAN.host[0].pingApp[4] numOutOfOrderArrivals:last nan
attr interpolationmode none
attr title "ping out-of-order arrivals, last"
scalar StarLAN.host[0].pingApp[4] numLost:last nan
attr interpolationmode none
attr title "pings lost, last"
scalar StarLAN.host[0].pingApp[4] rtt:mean 0.0029118889595969
attr interpolationmode none
attr title "ping round-trip time, mean"
attr unit s
scalar StarLAN.host[0].pingApp[5] "Pings sent" 404
scalar StarLAN.host[0].pingApp[5] "ping loss rate (%)" 0
scalar StarLAN.host[0].pingApp[5] "ping out-of-order rate (%)" 0
scalar StarLAN.host[0].pingApp[5] pingRxSeq:count 302
attr interpolationmode none
attr title "ping rx seq, count"
scalar StarLAN.host[0].pingApp[5] pingTxSeq:count 302
attr interpolationmode none
attr title "ping tx seq, count"
scalar StarLAN.host[0].pingApp[5] numOutOfOrderArrivals:last nan
attr interpolationmode none
attr title "ping out-of-order arrivals, last"
scalar StarLAN.host[0].pingApp[5] numLost:last nan
attr interpolationmode none
attr title "pings lost, last"
scalar StarLAN.host[0].pingApp[5] rtt:mean 0.0018862980268849
attr interpolationmode none
attr title "ping round-trip time, mean"
attr unit s
scalar StarLAN.host[0].pingApp[6] "Pings sent" 392
scalar StarLAN.host[0].pingApp[6] "ping loss rate (%)" 0
scalar StarLAN.host[0].pingApp[6] "ping out-of-order rate (%)" 0.25510204081633
scalar StarLAN.host[0].pingApp[6] pingRxSeq:count 290
attr interpolationmode none
attr title "ping rx seq, count"
scalar StarLAN.host[0].pingApp[6] pingTxSeq:count 290
attr interpolationmode none
attr title "ping tx seq, count"
scalar StarLAN.host[0].pingApp[6] numOutOfOrderArrivals:last 1
attr interpolationmode none
attr title "ping out-of-order arrivals, last"
scalar StarLAN.host[0].pingApp[6] numLost:last 0
attr interpolationmode none
attr title "pings lost, last"
scalar StarLAN.host[0].pingApp[6] rtt:mean 0.001679395520711
attr interpolationmode none
attr title "ping round-trip time, mean"
attr unit s
scalar StarLAN.host[0].pingApp[7] "Pings sent" 392
scalar StarLAN.host[0].pingApp[7] "ping loss rate (%)" 0
scalar StarLAN.host[0].pingApp[7] "ping out-of-order rate (%)" 0
scalar StarLAN.host[0].pingApp[7] pingRxSeq:count 294
attr interpolationmode none
attr title "ping rx seq, count"
scalar StarLAN.host[0].pingApp[7] pingTxSeq:count 294
attr interpolationmode none
attr title "ping tx seq, count"
scalar StarLAN.host[0].pingApp[7] numOutOfOrderArrivals:last nan
attr interpolationmode none
attr title "ping out-of-order arrivals, last"
scalar StarLAN.host[0].pingApp[7] numLost:last nan
attr interpolationmode none
attr title "pings lost, last"
scalar StarLAN.host[0].pingApp[7] rtt:mean 0.0020130849426543
attr interpolationmode none
attr title "ping round-trip time, mean"
attr unit s
scalar StarLAN.host[0].pingApp[8] "Pings sent" 386
scalar StarLAN.host[0].pingApp[8] "ping loss rate (%)" 0
scalar StarLAN.host[0].pingApp[8] "ping out-of-order rate (%)" 0
scalar StarLAN.host[0].pingApp[8] pingRxSeq:count 297
attr interpolationmode none
attr title "ping rx seq, count"
scalar StarLAN.host[0].pingApp[8] pingTxSeq:count 297
attr interpolationmode none
attr title "ping tx seq, count"
scalar StarLAN.host[0].pingApp[8] numOutOfOrderArrivals:last nan
attr interpolationmode none
attr title "ping out-of-order arrivals, last"
scalar StarLAN.host[0].pingApp[8] numLost:last nan
attr interpolationmode none
attr title "pings lost, last"
scalar StarLAN.host[0].pingApp[8] rtt:mean 0.001453368712
attr interpolationmode none
attr title "ping round-trip time, mean"
attr unit s
scalar StarLAN.host[0].pingApp[9] "Pings sent" 381
scalar StarLAN.host[0].pingApp[9] "ping loss rate (%)" 0
scalar StarLAN.host[0].pingApp[9] "ping out-of-order rate (%)" 0
scalar StarLAN.host[0].pingApp[9] pingRxSeq:count 292
attr interpolationmode none
attr title "ping rx seq, count"
scalar StarLAN.host[0].pingApp[9] pingTxSeq:count 292
attr interpolationmode none
attr title "ping tx seq, count"
scalar StarLAN.host[0].pingApp[9] numOutOfOrderArrivals:last nan
attr interpolationmode none
attr title "ping out-of-order arrivals, last"
scalar StarLAN.host[0].pingApp[9] numLost:last nan
attr interpolationmode none
attr title "pings lost, last"
scalar StarLAN.host[0].pingApp[9] rtt:mean 0.0025040173012218
attr interpolationmode none
attr title "ping round-trip time, mean"
attr unit s
scalar StarLAN.host[0].pingApp[10] "Pings sent" 402
scalar StarLAN.host[0].pingApp[10] "ping loss rate (%)" 0
scalar StarLAN.host[0].pingApp[10] "ping out-of-order rate (%)" 0
scalar StarLAN.host[0].pingApp[10] pingRxSeq:count 309
attr interpolationmode none
attr title "ping rx seq, count"
scalar StarLAN.host[0].pingApp[10] pingTxSeq:count 309
attr interpolationmode none
attr title "ping tx seq, count"
scalar StarLAN.host[0].pingApp[10] numOutOfOrderArrivals:last nan
attr interpolationmode none
attr title "ping out-of-order arrivals, last"
scalar StarLAN.host[0].pingApp[10] numLost:last nan
attr interpolationmode none
attr title "pings lost, last"
scalar StarLAN.host[0].pingApp[10] rtt:mean 0.0018769802879892
attr interpolationmode none
attr title "ping round-trip time, mean"
attr unit s
scalar StarLAN.host[0].pingApp[11] "Pings sent" 386
scalar StarLAN.host[0].pingApp[11] "ping loss rate (%)" 0
scalar StarLAN.host[0].pingApp[11] "ping out-of-order rate (%)" 0
scalar StarLAN.host[0].pingApp[11] pingRxSeq:count 288
attr interpolationmode none
attr title "ping rx seq, count"
scalar StarLAN.host[0].pingApp[11] pingTxSeq:count 288
attr interpolationmode none
attr title "ping tx seq, count"
scalar StarLAN.host[0].pingApp[11] numOutOfOrderArrivals:last nan
attr interpolationmode none
attr title "ping out-of-order arrivals, last"
scalar StarLAN.host[0].pingApp[11] numLost:last nan
attr interpolationmode none
attr title "pings lost, last"
scalar StarLAN.host[0].pingApp[11] rtt:mean 0.0027920208667736
attr interpolationmode none
attr title "ping round-trip time, mean"
attr unit s
scalar StarLAN.host[0].pingApp[12] "Pings sent" 381
scalar StarLAN.host[0].pingApp[12] "ping loss rate (%)" 0
scalar StarLAN.host[0].pingApp[12] "ping out-of-order rate (%)" 0
scalar StarLAN.host[0].pingApp[12] pingRxSeq:count 286
attr interpolationmode none
attr title "ping rx seq, count"
scalar StarLAN.host[0].pingApp[12] pingTxSeq:count 286
attr interpolationmode none
attr title "ping tx seq, count"
scalar StarLAN.host[0].pingApp[12] numOutOfOrderArrivals:last nan
attr interpolationmode none
attr title "ping out-of-order arrivals, last"
scalar StarLAN.host[0].pingApp[12] numLost:last nan
attr interpolationmode none
attr title "pings lost, last"
scalar StarLAN.host[0].pingApp[12] rtt:mean 0.0032204517464024
attr interpolationmode none
attr title "ping round-trip time, mean"
attr unit s
scalar StarLAN.host[0].pingApp[13] "Pings sent" 376
scalar StarLAN.host[0].pingApp[13] "ping loss rate (%)" 0
scalar StarLAN.host[0].pingApp[13] "ping out-of-order rate (%)" 0
scalar StarLAN.host[0].pingApp[13] pingRxSeq:count 291
attr interpolationmode none
attr title "ping rx seq, count"
scalar StarLAN.host[0].pingApp[13] pingTxSeq:count 291
attr interpolationmode none
attr title "ping tx seq, count"
scalar StarLAN.host[0].pingApp[13] numOutOfOrderArrivals:last nan
attr interpolationmode none
attr title "ping out-of-order arrivals, last"
scalar StarLAN.host[0].pingApp[13] numLost:last nan
attr interpolationmode none
attr title "pings lost, last"
scalar StarLAN.host[0].pingApp[13] rtt:mean 0.0023431276585517
attr interpolationmode none
attr title "ping round-trip time, mean"
attr unit s
scalar StarLAN.host[0].pingApp[14] "Pings sent" 394
scalar StarLAN.host[0].pingApp[14] "ping loss rate (%)" 0
scalar StarLAN.host[0].pingApp[14] "ping out-of-order rate (%)" 0.25380710659898
scalar StarLAN.host[0].pingApp[14] pingRxSeq:count 300
attr interpolationmode none
attr title "ping rx seq, count"
scalar StarLAN.host[0].pingApp[14] pingTxSeq:count 300
attr interpolationmode none
attr title "ping tx seq, count"
scalar StarLAN.host[0].pingApp[14] numOutOfOrderArrivals:last 1
attr interpolationmode none
attr title "ping out-of-order arrivals, last"
scalar StarLAN.host[0].pingApp[14] numLost:last 0
attr interpolationmode none
attr title "pings lost, last"
scalar StarLAN.host[0].pingApp[14] rtt:mean 0.0026179271400254
attr interpolationmode none
attr title "ping round-trip time, mean"
attr unit s
scalar StarLAN.host[0].pingApp[15] "Pings sent" 405
scalar StarLAN.host[0].pingApp[15] "ping loss rate (%)" 0
scalar StarLAN.host[0].pingApp[15] "ping out-of-order rate (%)" 0
scalar StarLAN.host[0].pingApp[15] pingRxSeq:count 301
attr interpolationmode none
attr title "ping rx seq, count"
scalar StarLAN.host[0].pingApp[15] pingTxSeq:count 301
attr interpolationmode none
attr title "ping tx seq, count"
scalar StarLAN.host[0].pingApp[15] numOutOfOrderArrivals:last nan
attr interpolationmode none
attr title "ping out-of-order arrivals, last"
scalar StarLAN.host[0].pingApp[15] numLost:last nan
attr interpolationmode none
attr title "pings lost, last"
scalar StarLAN.host[0].pingApp[15] rtt:mean 0.0018574490325925
attr interpolationmode none
attr title "ping round-trip time, mean"
attr unit s
scalar StarLAN.host[1].networkLayer.arp sentReply:count 0
attr title "ARP replies sent, count"
scalar StarLAN.host[1].networkLayer.arp sentReq:count 0
attr title "ARP request sent, count"
scalar StarLAN.host[1].networkLayer.arp failedARPResolution:count 0
attr title "ARP failed resolutions, count"
scalar StarLAN.host[1].networkLayer.arp completedARPResolution:count 0
attr title "ARP completed resolutions, count"
scalar StarLAN.host[1].networkLayer.arp initiatedARPResolution:count 0
attr title "ARP initiated resolutions, count"
scalar StarLAN.host[1].lo0.lo droppedPkBitError:count 0
attr interpolationmode none
attr source dropPkBitError
attr title "packets dropped/bit error, count"
scalar StarLAN.host[1].lo0.lo droppedPkBitError:sum(packetBytes) 0
attr interpolationmode none
attr source dropPkBitError
attr title "packets dropped/bit error, sum(packetBytes)"
scalar StarLAN.host[1].lo0.lo rcvdPkFromHL:count 1004
attr interpolationmode none
attr source packetReceivedFromUpper
attr title "packets received from higher layer, count"
scalar StarLAN.host[1].lo0.lo rcvdPkFromHL:sum(packetBytes) 511668
attr interpolationmode none
attr source packetReceivedFromUpper
attr title "packets received from higher layer, sum(packetBytes)"
scalar StarLAN.host[1].lo0.lo passedUpPk:count 1004
attr interpolationmode none
attr source packetSentToUpper
attr title "packets passed to higher layer, count"
scalar StarLAN.host[1].lo0.lo passedUpPk:sum(packetBytes) 511668
attr interpolationmode none
attr source packetSentToUpper
attr title "packets passed to higher layer, sum(packetBytes)"
scalar StarLAN.host[1].eth[0].queue.pauseQueue queueLength:max nan
attr interpolationmode sample-hold
attr title "queue length, max"
scalar StarLAN.host[1].eth[0].queue.pauseQueue queueLength:timeavg nan
attr interpolationmode sample-hold
attr title "queue length, timeavg"
statistic StarLAN.host[1].eth[0].queue.pauseQueue queueingTime:histogram
field count 0
field mean nan
field stddev nan
field min nan
field max nan
field sum 0
field sqrsum 0
attr interpolationmode none
attr title "queueing time, histogram"
bin	-inf	0
bin	-0.5	0
bin	-0.46666666666667	0
bin	-0.43333333333333	0
bin	-0.4	0
bin	-0.36666666666667	0
bin	-0.33333333333333	0
bin	-0.3	0
bin	-0.26666666666667	0
bin	-0.23333333333333	0
bin	-0.2	0
bin	-0.16666666666667	0
bin	-0.13333333333333	0
bin	-0.1	0
bin	-0.066666666666667	0
bin	-0.033333333333333	0
bin	0	0
bin	0.033333333333333	0
bin	0.066666666666667	0
bin	0.1	0
bin	0.13333333333333	0
bin	0.16666666666667	0
bin	0.2	0
bin	0.23333333333333	0
bin	0.26666666666667	0
bin	0.3	0
bin	0.33333333333333	0
bin	0.36666666666667	0
bin	0.4	0
bin	0.43333333333333	0
bin	0.46666666666667	0
bin	0.5	0
scalar StarLAN.host[1].eth[0].queue.pauseQueue dropPk:count 0
attr interpolationmode none
attr source dropPkByQueue
attr title "dropped packets, count"
scalar StarLAN.host[1].eth[0].queue.pauseQueue dropPk:sum(packetBytes) 0
attr interpolationmode none
attr source dropPkByQueue
attr title "dropped packets, sum(packetBytes)"
scalar StarLAN.host[1].eth[0].queue.pauseQueue rcvdPk:count 0
attr interpolationmode none
attr title "received packets, count"
scalar StarLAN.host[1].eth[0].queue.pauseQueue rcvdPk:sum(packetBytes) 0
attr interpolationmode none
attr title "received packets, sum(packetBytes)"
scalar StarLAN.host[1].eth[0].queue.dataQueue queueLength:max 6
attr interpolationmode sample-hold
attr title "queue length, max"
scalar StarLAN.host[1].eth[0].queue.dataQueue queueLength:timeavg 0.057822441741722
attr interpolationmode sample-hold
attr title "queue length, timeavg"
statistic StarLAN.host[1].eth[0].queue.dataQueue queueingTime:histogram
field count 8551
field mean 0.0001014698994527
field stddev 0.00022900358651206
field min 0
field max 0.00229329458
field sum 0.86766911022
field sqrsum 0.00053642689190481
attr interpolationmode none
attr title "queueing time, histogram"
bin	-inf	0
bin	-0.0004232	0
bin	-0.00036677333333333	0
bin	-0.00031034666666667	0
bin	-0.00025392	0
bin	-0.00019749333333333	0
bin	-0.00014106666666667	0
bin	-8.464e-005	0
bin	-2.8213333333333e-005	6407
bin	2.8213333333333e-005	201
bin	8.464e-005	197
bin	0.00014106666666667	206
bin	0.00019749333333333	202
bin	0.00025392	189
bin	0.00031034666666667	181
bin	0.00036677333333333	156
bin	0.0004232	117
bin	0.00047962666666667	119
bin	0.00053605333333333	84
bin	0.00059248	70
bin	0.00064890666666667	62
bin	0.00070533333333333	47
bin	0.00076176	31
bin	0.00081818666666667	182
bin	0.00087461333333333	20
bin	0.00093104	15
bin	0.00098746666666667	9
bin	0.0010438933333333	11
bin	0.00110032	8
bin	0.0011567466666667	8
bin	0.0012131733333333	3
bin	0.0012696	26
scalar StarLAN.host[1].eth[0].queue.dataQueue dropPk:count 0
attr interpolationmode none
attr source dropPkByQueue
attr title "dropped packets, count"
scalar StarLAN.host[1].eth[0].queue.dataQueue dropPk:sum(packetBytes) 0
attr interpolationmode none
attr source dropPkByQueue
attr title "dropped packets, sum(packetBytes)"
scalar StarLAN.host[1].eth[0].queue.dataQueue rcvdPk:count 8550
attr interpolationmode none
attr title "received packets, count"
scalar StarLAN.host[1].eth[0].queue.dataQueue rcvdPk:sum(packetBytes) 4640198
attr interpolationmode none
attr title "received packets, sum(packetBytes)"
scalar StarLAN.host[1].eth[0].mac "simulated time" 20
scalar StarLAN.host[1].eth[0].mac full-duplex 1
scalar StarLAN.host[1].eth[0].mac "frames/sec sent" 564
scalar StarLAN.host[1].eth[0].mac "frames/sec rcvd" 565.85
scalar StarLAN.host[1].eth[0].mac "bits/sec sent" 2446623.6
scalar StarLAN.host[1].eth[0].mac "bits/sec rcvd" 2447675.2
scalar StarLAN.host[1].eth[0].mac "rx channel idle (%)" 75.161104
scalar StarLAN.host[1].eth[0].mac "rx channel utilization (%)" 24.838896
scalar StarLAN.host[1].eth[0].mac rxPkFromHL:count 8551
attr interpolationmode none
attr source rxPkFromHL
attr title "packet bytes from higher layer, count"
scalar StarLAN.host[1].eth[0].mac rxPkFromHL:sum(packetBytes) 4640628
attr interpolationmode none
attr source rxPkFromHL
attr title "packet bytes from higher layer, sum(packetBytes)"
scalar StarLAN.host[1].eth[0].mac rxPausePkUnits:count 0
attr interpolationmode none
attr title "pause units received, count"
scalar StarLAN.host[1].eth[0].mac rxPausePkUnits:sum 0
attr interpolationmode none
attr title "pause units received, sum"
scalar StarLAN.host[1].eth[0].mac txPausePkUnits:count 0
attr interpolationmode none
attr title "pause units sent, count"
scalar StarLAN.host[1].eth[0].mac txPausePkUnits:sum 0
attr interpolationmode none
attr title "pause units sent, sum"
scalar StarLAN.host[1].eth[0].mac txPk:count 8551
attr interpolationmode none
attr source txPk
attr title "packets transmitted, count"
scalar StarLAN.host[1].eth[0].mac txPk:sum(packetBytes) 4640955
attr interpolationmode none
attr source txPk
attr title "packets transmitted, sum(packetBytes)"
scalar StarLAN.host[1].eth[0].mac droppedPkNotForUs:count 0
attr interpolationmode none
attr source dropPkNotForUs
attr title "packets dropped/not for us, count"
scalar StarLAN.host[1].eth[0].mac droppedPkNotForUs:sum(packetBytes) 0
attr interpolationmode none
attr source dropPkNotForUs
attr title "packets dropped/not for us, sum(packetBytes)"
scalar StarLAN.host[1].eth[0].mac droppedPkBitError:count 0
attr interpolationmode none
attr source dropPkBitError
attr title "packets dropped/bit error, count"
scalar StarLAN.host[1].eth[0].mac droppedPkBitError:sum(packetBytes) 0
attr interpolationmode none
attr source dropPkBitError
attr title "packets dropped/bit error, sum(packetBytes)"
scalar StarLAN.host[1].eth[0].mac droppedPkIfaceDown:count 0
attr interpolationmode none
attr source dropPkIfaceDown
attr title "packets dropped/interface down, count"
scalar StarLAN.host[1].eth[0].mac droppedPkIfaceDown:sum(packetBytes) 0
attr interpolationmode none
attr source dropPkIfaceDown
attr title "packets dropped/interface down, sum(packetBytes)"
scalar StarLAN.host[1].eth[0].mac rxPkOk:count 8551
attr interpolationmode none
attr source rxPkOk
attr title "packets received OK, count"
scalar StarLAN.host[1].eth[0].mac rxPkOk:sum(packetBytes) 4640628
attr interpolationmode none
attr source rxPkOk
attr title "packets received OK, sum(packetBytes)"
scalar StarLAN.host[1].eth[0].mac passedUpPk:count 8551
attr interpolationmode none
attr source packetSentToUpper
attr title "packets passed to higher layer, count"
scalar StarLAN.host[1].eth[0].mac passedUpPk:sum(packetBytes) 4640628
attr interpolationmode none
attr source packetSentToUpper
attr title "packets passed to higher layer, sum(packetBytes)"
scalar StarLAN.host[1].eth[0].encap pauseSent:count 0
attr title "pause sent, count"
scalar StarLAN.host[1].eth[0].encap pauseSent:sum 0
attr title "pause sent, sum"
scalar StarLAN.host[1].eth[0].encap decapPk:count 8551
attr interpolationmode none
attr source decapPk
attr title "packets decapsulated, count"
scalar StarLAN.host[1].eth[0].encap decapPk:sum(packetBytes) 4485794
attr interpolationmode none
attr source decapPk
attr title "packets decapsulated, sum(packetBytes)"
scalar StarLAN.host[1].eth[0].encap encapPk:count 8550
attr interpolationmode none
attr source encapPk
attr title "packets encapsulated, count"
scalar StarLAN.host[1].eth[0].encap encapPk:sum(packetBytes) 4485382
attr interpolationmode none
attr source encapPk
attr title "packets encapsulated, sum(packetBytes)"
scalar StarLAN.host[1].pingApp[0] "Pings sent" 402
scalar StarLAN.host[1].pingApp[0] "ping loss rate (%)" 0
scalar StarLAN.host[1].pingApp[0] "ping out-of-order rate (%)" 0.24875621890547
scalar StarLAN.host[1].pingApp[0] pingRxSeq:count 312
attr interpolationmode none
attr title "ping rx seq, count"
scalar StarLAN.host[1].pingApp[0] pingTxSeq:count 312
attr interpolationmode none
attr title "ping tx seq, count"
scalar StarLAN.host[1].pingApp[0] numOutOfOrderArrivals:last 1
attr interpolationmode none
attr title "ping out-of-order arrivals, last"
scalar StarLAN.host[1].pingApp[0] numLost:last 0
attr interpolationmode none
attr title "pings lost, last"
scalar StarLAN.host[1].pingApp[0] rtt:mean 0.0024957339273139
attr interpolationmode none
attr title "ping round-trip time, mean"
attr unit s
scalar StarLAN.host[1].pingApp[1] "Pings sent" 380
scalar StarLAN.host[1].pingApp[1] "ping loss rate (%)" 0
scalar StarLAN.host[1].pingApp[1] "ping out-of-order rate (%)" 0
scalar StarLAN.host[1].pingApp[1] pingRxSeq:count 287
attr interpolationmode none
attr title "ping rx seq, count"
scalar StarLAN.host[1].pingApp[1] pingTxSeq:count 287
attr interpolationmode none
attr title "ping tx seq, count"
scalar StarLAN.host[1].pingApp[1] numOutOfOrderArrivals:last nan
attr interpolationmode none
attr title "ping out-of-order arrivals, last"
scalar StarLAN.host[1].pingApp[1] numLost:last nan
attr interpolationmode none
attr title "pings lost, last"
scalar StarLAN.host[1].pingApp[1] rtt:mean 0.0025897238076275
attr interpolationmode none
attr title "ping round-trip time, mean"
attr unit s
scalar StarLAN.host[1].pingApp[2] "Pings sent" 382
scalar StarLAN.host[1].pingApp[2] "ping loss rate (%)" 0
scalar StarLAN.host[1].pingApp[2] "ping out-of-order rate (%)" 0
scalar StarLAN.host[1].pingApp[2] pingRxSeq:count 287
attr interpolationmode none
attr title "ping rx seq, count"
scalar StarLAN.host[1].pingApp[2] pingTxSeq:count 287
attr interpolationmode none
attr title "ping tx seq, count"
scalar StarLAN.host[1].pingApp[2] numOutOfOrderArrivals:last nan
attr interpolationmode none
attr title "ping out-of-order arrivals, last"
scalar StarLAN.host[1].pingApp[2] numLost:last nan
attr interpolationmode none
attr title "pings lost, last"
scalar StarLAN.host[1].pingApp[2] rtt:mean 0.0009603771226746
attr interpolationmode none
attr title "ping round-trip time, mean"
attr unit s
scalar StarLAN.host[1].pingApp[3] "Pings sent" 388
scalar StarLAN.host[1].pingApp[3] "ping loss rate (%)" 0
scalar StarLAN.host[1].pingApp[3] "ping out-of-order rate (%)" 0
scalar StarLAN.host[1].pingApp[3] pingRxSeq:count 293
attr interpolationmode none
attr title "ping rx seq, count"
scalar StarLAN.host[1].pingApp[3] pingTxSeq:count 293
attr interpolationmode none
attr title "ping tx seq, count"
scalar StarLAN.host[1].pingApp[3] numOutOfOrderArrivals:last nan
attr interpolationmode none
attr title "ping out-of-order arrivals, last"
scalar StarLAN.host[1].pingApp[3] numLost:last nan
attr interpolationmode none
attr title "pings lost, last"
scalar StarLAN.host[1].pingApp[3] rtt:mean 0.0012576860274225
attr interpolationmode none
attr title "ping round-trip time, mean"
attr unit s
scalar StarLAN.host[1].pingApp[4] "Pings sent" 369
scalar StarLAN.host[1].pingApp[4] "ping loss rate (%)" 0
scalar StarLAN.host[1].pingApp[4] "ping out-of-order rate (%)" 0
scalar StarLAN.host[1].pingApp[4] pingRxSeq:count 275
attr interpolationmode none
attr title "ping rx seq, count"
scalar StarLAN.host[1].pingApp[4] pingTxSeq:count 274
attr interpolationmode none
attr title "ping tx seq, count"
scalar StarLAN.host[1].pingApp[4] numOutOfOrderArrivals:last nan
attr interpolationmode none
attr title "ping out-of-order arrivals, last"
scalar StarLAN.host[1].pingApp[4] numLost:last nan
attr interpolationmode none
attr title "pings lost, last"
scalar StarLAN.host[1].pingApp[4] rtt:mean 0.001837812499332
attr interpolationmode none
attr title "ping round-trip time, mean"
attr unit s
scalar StarLAN.host[1].pingApp[5] "Pings sent" 386
scalar StarLAN.host[1].pingApp[5] "ping loss rate (%)" 0
scalar StarLAN.host[1].pingApp[5] "ping out-of-order rate (%)" 0
scalar StarLAN.host[1].pingApp[5] pingRxSeq:count 292
attr interpolationmode none
attr title "ping rx seq, count"
scalar StarLAN.host[1].pingApp[5] pingTxSeq:count 292
attr interpolationmode none
attr title "ping tx seq, count"
scalar StarLAN.host[1].pingApp[5] numOutOfOrderArrivals:last nan
attr interpolationmode none
attr title "ping out-of-order arrivals, last"
scalar StarLAN.host[1].pingApp[5] numLost:last nan
attr interpolationmode none
attr title "pings lost, last"
scalar StarLAN.host[1].pingApp[5] rtt:mean 0.0024239651181401
attr interpolationmode none
attr title "ping round-trip time, mean"
attr unit s
scalar StarLAN.host[1].pingApp[6] "Pings sent" 385
scalar StarLAN.host[1].pingApp[6] "ping loss rate (%)" 0
scalar StarLAN.host[1].pingApp[6] "ping out-of-order rate (%)" 0
scalar StarLAN.host[1].pingApp[6] pingRxSeq:count 301
attr interpolationmode none
attr title "ping rx seq, count"
scalar StarLAN.host[1].pingApp[6] pingTxSeq:count 301
attr interpolationmode none
attr title "ping tx seq, count"
scalar StarLAN.host[1].pingApp[6] numOutOfOrderArrivals:last nan
attr interpolationmode none
attr title "ping out-of-order arrivals, last"
scalar StarLAN.host[1].pingApp[6] numLost:last nan
attr interpolationmode none
attr title "pings lost, last"
scalar StarLAN.host[1].pingApp[6] rtt:mean 0.0013643189528545
attr interpolationmode none
attr title "ping round-trip time, mean"
attr unit s
scalar StarLAN.host[1].pingApp[7] "Pings sent" 371
scalar StarLAN.host[1].pingApp[7] "ping loss rate (%)" 0
scalar StarLAN.host[1].pingApp[7] "ping out-of-order rate (%)" 0
scalar StarLAN.host[1].pingApp[7] pingRxSeq:count 277
attr interpolationmode none
attr title "ping rx seq, count"
scalar StarLAN.host[1].pingApp[7] pingTxSeq:count 277
attr interpolationmode none
attr title "ping tx seq, count"
scalar StarLAN.host[1].pingApp[7] numOutOfOrderArrivals:last nan
attr interpolationmode none
attr title "ping out-of-order arrivals, last"
scalar StarLAN.host[1].pingApp[7] numLost:last nan
attr interpolationmode none
attr title "pings lost, last"
scalar StarLAN.host[1].pingApp[7] rtt:mean 0.0027213614010315
attr interpolationmode none
attr title "ping round-trip time, mean"
attr unit s
scalar StarLAN.host[1].pingApp[8] "Pings sent" 380
scalar StarLAN.host[1].pingApp[8] "ping loss rate (%)" 0
scalar StarLAN.host[1].pingApp[8] "ping out-of-order rate (%)" 0
scalar StarLAN.host[1].pingApp[8] pingRxSeq:count 290
attr interpolationmode none
attr title "ping rx seq, count"
scalar StarLAN.host[1].pingApp[8] pingTxSeq:count 290
attr interpolationmode none
attr title "ping tx seq, count"
scalar StarLAN.host[1].pingApp[8] numOutOfOrderArrivals:last nan
attr interpolationmode none
attr title "ping out-of-order arrivals, last"
scalar StarLAN.host[1].pingApp[8] numLost:last nan
attr interpolationmode none
attr title "pings lost, last"
scalar StarLAN.host[1].pingApp[8] rtt:mean 0.0017179194340787
attr interpolationmode none
attr title "ping round-trip time, mean"
attr unit s
scalar StarLAN.host[1].pingApp[9] "Pings sent" 394
scalar StarLAN.host[1].pingApp[9] "ping loss rate (%)" 0
scalar StarLAN.host[1].pingApp[9] "ping out-of-order rate (%)" 0
scalar StarLAN.host[1].pingApp[9] pingRxSeq:count 292
attr interpolationmode none
attr title "ping rx seq, count"
scalar StarLAN.host[1].pingApp[9] pingTxSeq:count 292
attr interpolationmode none
attr title "ping tx seq, count"
scalar StarLAN.host[1].pingApp[9] numOutOfOrderArrivals:last nan
attr interpolationmode none
attr title "ping out-of-order arrivals, last"
scalar StarLAN.host[1].pingApp[9] numLost:last nan
attr interpolationmode none
attr title "pings lost, last"
scalar StarLAN.host[1].pingApp[9] rtt:mean 0.0031830476112364
attr interpolationmode none
attr title "ping round-trip time, mean"
attr unit s
scalar StarLAN.host[1].pingApp[10] "Pings sent" 394
scalar StarLAN.host[1].pingApp[10] "ping loss rate (%)" 0
scalar StarLAN.host[1].pingApp[10] "ping out-of-order rate (%)" 0
scalar StarLAN.host[1].pingApp[10] pingRxSeq:count 296
attr interpolationmode none
attr title "ping rx seq, count"
scalar StarLAN.host[1].pingApp[10] pingTxSeq:count 296
attr interpolationmode none
attr title "ping tx seq, count"
scalar StarLAN.host[1].pingApp[10] numOutOfOrderArrivals:last nan
attr interpolationmode none
attr title "ping out-of-order arrivals, last"
scalar StarLAN.host[1].pingApp[10] numLost:last nan
attr interpolationmode none
attr title "pings lost, last"
scalar StarLAN.host[1].pingApp[10] rtt:mean 0.0019617892831597
attr interpolationmode none
attr title "ping round-trip time, mean"
attr unit s
scalar StarLAN.host[1].pingApp[11] "Pings sent" 382
scalar StarLAN.host[1].pingApp[11] "ping loss rate (%)" 0
scalar StarLAN.host[1].pingApp[11] "ping out-of-order rate (%)" 0
scalar StarLAN.host[1].pingApp[11] pingRxSeq:count 289
attr interpolationmode none
attr title "ping rx seq, count"
scalar StarLAN.host[1].pingApp[11] pingTxSeq:count 289
attr interpolationmode none
attr title "ping tx seq, count"
scalar StarLAN.host[1].pingApp[11] numOutOfOrderArrivals:last nan
attr interpolationmode none
attr title "ping out-of-order arrivals, last"
scalar StarLAN.host[1].pingApp[11] numLost:last nan
attr interpolationmode none
attr title "pings lost, last"
scalar StarLAN.host[1].pingApp[11] rtt:mean 0.0019382214094405
attr interpolationmode none
attr title "ping round-trip time, mean"
attr unit s
scalar StarLAN.host[1].pingApp[12] "Pings sent" 384
scalar StarLAN.host[1].pingApp[12] "ping loss rate (%)" 0
scalar StarLAN.host[1].pingApp[12] "ping out-of-order rate (%)" 0
scalar StarLAN.host[1].pingApp[12] pingRxSeq:count 291
attr interpolationmode none
attr title "ping rx seq, count"
scalar StarLAN.host[1].pingApp[12] pingTxSeq:count 291
attr interpolationmode none
attr title "ping tx seq, count"
scalar StarLAN.host[1].pingApp[12] numOutOfOrderArrivals:last nan
attr interpolationmode none
attr title "ping out-of-order arrivals, last"
scalar StarLAN.host[1].pingApp[12] numLost:last nan
attr interpolationmode none
attr title "pings lost, last"
scalar StarLAN.host[1].pingApp[12] rtt:mean 0.0025631693562047
attr interpolationmode none
attr title "ping round-trip time, mean"
attr unit s
scalar StarLAN.host[1].pingApp[13] "Pings sent" 380
scalar StarLAN.host[1].pingApp[13] "ping loss rate (%)" 0
scalar StarLAN.host[1].pingApp[13] "ping out-of-order rate (%)" 0.26315789473684
scalar StarLAN.host[1].pingApp[13] pingRxSeq:count 286
attr interpolationmode none
attr title "ping rx seq, count"
scalar StarLAN.host[1].pingApp[13] pingTxSeq:count 286
attr interpolationmode none
attr title "ping tx seq, count"
scalar StarLAN.host[1].pingApp[13] numOutOfOrderArrivals:last nan
attr interpolationmode none
attr title "ping out-of-order arrivals, last"
scalar StarLAN.host[1].pingApp[13] numLost:last nan
attr interpolationmode none
attr title "pings lost, last"
scalar StarLAN.host[1].pingApp[13] rtt:mean 0.0023070097897778
attr interpolationmode none
attr title "ping round-trip time, mean"
attr unit s
scalar StarLAN.host[1].pingApp[14] "Pings sent" 390
scalar StarLAN.host[1].pingApp[14] "ping loss rate (%)" 0
scalar StarLAN.host[1].pingApp[14] "ping out-of-order rate (%)" 0
scalar StarLAN.host[1].pingApp[14] pingRxSeq:count 297
attr interpolationmode none
attr title "ping rx seq, count"
scalar StarLAN.host[1].pingApp[14] pingTxSeq:count 297
attr interpolationmode none
attr title "ping tx seq, count"
scalar StarLAN.host[1].pingApp[14] numOutOfOrderArrivals:last nan
attr interpolationmode none
attr title "ping out-of-order arrivals, last"
scalar StarLAN.host[1].pingApp[14] numLost:last nan
attr interpolationmode none
attr title "pings lost, last"
scalar StarLAN.host[1].pingApp[14] rtt:mean 0.0029220179306752
attr interpolationmode none
attr title "ping round-trip time, mean"
attr unit s
scalar StarLAN.host[1].pingApp[15] "Pings sent" 383
scalar StarLAN.host[1].pingApp[15] "ping loss rate (%)" 0
scalar StarLAN.host[1].pingApp[15] "ping out-of-order rate (%)" 0
scalar StarLAN.host[1].pingApp[15] pingRxSeq:count 289
attr interpolationmode none
attr title "ping rx seq, count"
scalar StarLAN.host[1].pingApp[15] pingTxSeq:count 289
attr interpolationmode none
attr title "ping tx seq, count"
scalar StarLAN.host[1].pingApp[15] numOutOfOrderArrivals:last nan
attr interpolationmode none
attr title "ping out-of-order arrivals, last"
scalar StarLAN.host[1].pingApp[15] numLost:last nan
attr interpolationmode none
attr title "pings lost, last"
scalar StarLAN.host[1].pingApp[15] rtt:mean 0.0014556536845331
attr interpolationmode none
attr title "ping round-trip time, mean"
attr unit s
scalar StarLAN.host[2].networkLayer.arp sentReply:count 0
attr title "ARP replies sent, count"
scalar StarLAN.host[2].networkLayer.arp sentReq:count 0
attr title "ARP request sent, count"
scalar StarLAN.host[2].networkLayer.arp failedARPResolution:count 0
attr title "ARP failed resolutions, count"
scalar StarLAN.host[2].networkLayer.arp completedARPResolution:count 0
attr title "ARP completed resolutions, count"
scalar StarLAN.host[2].networkLayer.arp initiatedARPResolution:count 0
attr title "ARP initiated resolutions, count"
scalar StarLAN.host[2].lo0.lo droppedPkBitError:count 0
attr interpolationmode none
attr source dropPkBitError
attr title "packets dropped/bit error, count"
scalar StarLAN.host[2].lo0.lo droppedPkBitError:sum(packetBytes) 0
attr interpolationmode none
attr source dropPkBitError
attr title "packets dropped/bit error, sum(packetBytes)"
scalar StarLAN.host[2].lo0.lo rcvdPkFromHL:count 964
attr interpolationmode none
attr source packetReceivedFromUpper
attr title "packets received from higher layer, count"
scalar StarLAN.host[2].lo0.lo rcvdPkFromHL:sum(packetBytes) 458010
attr interpolationmode none
attr source packetReceivedFromUpper
attr title "packets received from higher layer, sum(packetBytes)"
scalar StarLAN.host[2].lo0.lo passedUpPk:count 964
attr interpolationmode none
attr source packetSentToUpper
attr title "packets passed to higher layer, count"
scalar StarLAN.host[2].lo0.lo passedUpPk:sum(packetBytes) 458010
attr interpolationmode none
attr source packetSentToUpper
attr title "packets passed to higher layer, sum(packetBytes)"
scalar StarLAN.host[2].eth[0].queue.pauseQueue queueLength:max nan
attr interpolationmode sample-hold
attr title "queue length, max"
scalar StarLAN.host[2].eth[0].queue.pauseQueue queueLength:timeavg nan
attr interpolationmode sample-hold
attr title "queue length, timeavg"
statistic StarLAN.host[2].eth[0].queue.pauseQueue queueingTime:histogram
field count 0
field mean nan
field stddev nan
field min nan
field max nan
field sum 0
field sqrsum 0
attr interpolationmode none
attr title "queueing time, histogram"
bin	-inf	0
bin	-0.5	0
bin	-0.46666666666667	0
bin	-0.43333333333333	0
bin	-0.4	0
bin	-0.36666666666667	0
bin	-0.33333333333333	0
bin	-0.3	0
bin	-0.26666666666667	0
bin	-0.23333333333333	0
bin	-0.2	0
bin	-0.16666666666667	0
bin	-0.13333333333333	0
bin	-0.1	0
bin	-0.066666666666667	0
bin	-0.033333333333333	0
bin	0	0
bin	0.033333333333333	0
bin	0.066666666666667	0
bin	0.1	0
bin	0.13333333333333	0
bin	0.16666666666667	0
bin	0.2	0
bin	0.23333333333333	0
bin	0.26666666666667	0
bin	0.3	0
bin	0.33333333333333	0
bin	0.36666666666667	0
bin	0.4	0
bin	0.43333333333333	0
bin	0.46666666666667	0
bin	0.5	0
scalar StarLAN.host[2].eth[0].queue.pauseQueue dropPk:count 0
attr interpolationmode none
attr source dropPkByQueue
attr title "dropped packets, count"
scalar StarLAN.host[2].eth[0].queue.pauseQueue dropPk:sum(packetBytes) 0
attr interpolationmode none
attr source dropPkByQueue
attr title "dropped packets, sum(packetBytes)"
scalar StarLAN.host[2].eth[0].queue.pauseQueue rcvdPk:count 0
attr interpolationmode none
attr title "received packets, count"
scalar StarLAN.host[2].eth[0].queue.pauseQueue rcvdPk:sum(packetBytes) 0
attr interpolationmode none
attr title "received packets, sum(packetBytes)"
scalar StarLAN.host[2].eth[0].queue.dataQueue queueLength:max 4
attr interpolationmode sample-hold
attr title "queue length, max"
scalar StarLAN.host[2].eth[0].queue.dataQueue queueLength:timeavg 0.051651812005394
attr interpolationmode sample-hold
attr title "queue length, timeavg"
statistic StarLAN.host[2].eth[0].queue.dataQueue queueingTime:histogram
field count 8540
field mean 9.0695772360188e-005
field stddev 0.00020972641132372
field min 0
field max 0.0017976
field sum 0.774541895956
field sqrsum 0.00044583702167289
attr interpolationmode none
attr title "queueing time, histogram"
bin	-inf	0
bin	-0.0004232	0
bin	-0.00036677333333333	0
bin	-0.00031034666666667	0
bin	-0.00025392	0
bin	-0.00019749333333333	0
bin	-0.00014106666666667	0
bin	-8.464e-005	0
bin	-2.8213333333333e-005	6496
bin	2.8213333333333e-005	236
bin	8.464e-005	217
bin	0.00014106666666667	195
bin	0.00019749333333333	185
bin	0.00025392	169
bin	0.00031034666666667	173
bin	0.00036677333333333	158
bin	0.0004232	108
bin	0.00047962666666667	96
bin	0.00053605333333333	76
bin	0.00059248	67
bin	0.00064890666666667	49
bin	0.00070533333333333	37
bin	0.00076176	22
bin	0.00081818666666667	181
bin	0.00087461333333333	24
bin	0.00093104	12
bin	0.00098746666666667	6
bin	0.0010438933333333	10
bin	0.00110032	6
bin	0.0011567466666667	6
bin	0.0012131733333333	3
bin	0.0012696	8
scalar StarLAN.host[2].eth[0].queue.dataQueue dropPk:count 0
attr interpolationmode none
attr source dropPkByQueue
attr title "dropped packets, count"
scalar StarLAN.host[2].eth[0].queue.dataQueue dropPk:sum(packetBytes) 0
attr interpolationmode none
attr source dropPkByQueue
attr title "dropped packets, sum(packetBytes)"
scalar StarLAN.host[2].eth[0].queue.dataQueue rcvdPk:count 8540
attr interpolationmode none
attr title "received packets, count"
scalar StarLAN.host[2].eth[0].queue.dataQueue rcvdPk:sum(packetBytes) 4431865
attr interpolationmode none
attr title "received packets, sum(packetBytes)"
scalar StarLAN.host[2].eth[0].mac "simulated time" 20
scalar StarLAN.host[2].eth[0].mac full-duplex 1
scalar StarLAN.host[2].eth[0].mac "frames/sec sent" 566.65
scalar StarLAN.host[2].eth[0].mac "frames/sec rcvd" 568.35
scalar StarLAN.host[2].eth[0].mac "bits/sec sent" 2352392
scalar StarLAN.host[2].eth[0].mac "bits/sec rcvd" 2352948.4
scalar StarLAN.host[2].eth[0].mac "rx channel idle (%)" 76.106772
scalar StarLAN.host[2].eth[0].mac "rx channel utilization (%)" 23.893228
scalar StarLAN.host[2].eth[0].mac rxPkFromHL:count 8540
attr interpolationmode none
attr source rxPkFromHL
attr title "packet bytes from higher layer, count"
scalar StarLAN.host[2].eth[0].mac rxPkFromHL:sum(packetBytes) 4431865
attr interpolationmode none
attr source rxPkFromHL
attr title "packet bytes from higher layer, sum(packetBytes)"
scalar StarLAN.host[2].eth[0].mac rxPausePkUnits:count 0
attr interpolationmode none
attr title "pause units received, count"
scalar StarLAN.host[2].eth[0].mac rxPausePkUnits:sum 0
attr interpolationmode none
attr title "pause units received, sum"
scalar StarLAN.host[2].eth[0].mac txPausePkUnits:count 0
attr interpolationmode none
attr title "pause units sent, count"
scalar StarLAN.host[2].eth[0].mac txPausePkUnits:sum 0
attr interpolationmode none
attr title "pause units sent, sum"
scalar StarLAN.host[2].eth[0].mac txPk:count 8540
attr interpolationmode none
attr source txPk
attr title "packets transmitted, count"
scalar StarLAN.host[2].eth[0].mac txPk:sum(packetBytes) 4431865
attr interpolationmode none
attr source txPk
attr title "packets transmitted, sum(packetBytes)"
scalar StarLAN.host[2].eth[0].mac droppedPkNotForUs:count 0
attr interpolationmode none
attr source dropPkNotForUs
attr title "packets dropped/not for us, count"
scalar StarLAN.host[2].eth[0].mac droppedPkNotForUs:sum(packetBytes) 0
attr interpolationmode none
attr source dropPkNotForUs
attr title "packets dropped/not for us, sum(packetBytes)"
scalar StarLAN.host[2].eth[0].mac droppedPkBitError:count 0
attr interpolationmode none
attr source dropPkBitError
attr title "packets dropped/bit error, count"
scalar StarLAN.host[2].eth[0].mac droppedPkBitError:sum(packetBytes) 0
attr interpolationmode none
attr source dropPkBitError
attr title "packets dropped/bit error, sum(packetBytes)"
scalar StarLAN.host[2].eth[0].mac droppedPkIfaceDown:count 0
attr interpolationmode none
attr source dropPkIfaceDown
attr title "packets dropped/interface down, count"
scalar StarLAN.host[2].eth[0].mac droppedPkIfaceDown:sum(packetBytes) 0
attr interpolationmode none
attr source dropPkIfaceDown
attr title "packets dropped/interface down, sum(packetBytes)"
scalar StarLAN.host[2].eth[0].mac rxPkOk:count 8538
attr interpolationmode none
attr source rxPkOk
attr title "packets received OK, count"
scalar StarLAN.host[2].eth[0].mac rxPkOk:sum(packetBytes) 4430952
attr interpolationmode none
attr source rxPkOk
attr title "packets received OK, sum(packetBytes)"
scalar StarLAN.host[2].eth[0].mac passedUpPk:count 8538
attr interpolationmode none
attr source packetSentToUpper
attr title "packets passed to higher layer, count"
scalar StarLAN.host[2].eth[0].mac passedUpPk:sum(packetBytes) 4430952
attr interpolationmode none
attr source packetSentToUpper
attr title "packets passed to higher layer, sum(packetBytes)"
scalar StarLAN.host[2].eth[0].encap pauseSent:count 0
attr title "pause sent, count"
scalar StarLAN.host[2].eth[0].encap pauseSent:sum 0
attr title "pause sent, sum"
scalar StarLAN.host[2].eth[0].encap decapPk:count 8538
attr interpolationmode none
attr source decapPk
attr title "packets decapsulated, count"
scalar StarLAN.host[2].eth[0].encap decapPk:sum(packetBytes) 4276316
attr interpolationmode none
attr source decapPk
attr title "packets decapsulated, sum(packetBytes)"
scalar StarLAN.host[2].eth[0].encap encapPk:count 8540
attr interpolationmode none
attr source encapPk
attr title "packets encapsulated, count"
scalar StarLAN.host[2].eth[0].encap encapPk:sum(packetBytes) 4277193
attr interpolationmode none
attr source encapPk
attr title "packets encapsulated, sum(packetBytes)"
scalar StarLAN.host[2].pingApp[0] "Pings sent" 383
scalar StarLAN.host[2].pingApp[0] "ping loss rate (%)" 0
scalar StarLAN.host[2].pingApp[0] "ping out-of-order rate (%)" 0
scalar StarLAN.host[2].pingApp[0] pingRxSeq:count 300
attr interpolationmode none
attr title "ping rx seq, count"
scalar StarLAN.host[2].pingApp[0] pingTxSeq:count 300
attr interpolationmode none
attr title "ping tx seq, count"
scalar StarLAN.host[2].pingApp[0] numOutOfOrderArrivals:last nan
attr interpolationmode none
attr title "ping out-of-order arrivals, last"
scalar StarLAN.host[2].pingApp[0] numLost:last nan
attr interpolationmode none
attr title "pings lost, last"
scalar StarLAN.host[2].pingApp[0] rtt:mean 0.0030949756803579
attr interpolationmode none
attr title "ping round-trip time, mean"
attr unit s
scalar StarLAN.host[2].pingApp[1] "Pings sent" 377
scalar StarLAN.host[2].pingApp[1] "ping loss rate (%)" 0
scalar StarLAN.host[2].pingApp[1] "ping out-of-order rate (%)" 0
scalar StarLAN.host[2].pingApp[1] pingRxSeq:count 284
attr interpolationmode none
attr title "ping rx seq, count"
scalar StarLAN.host[2].pingApp[1] pingTxSeq:count 284
attr interpolationmode none
attr title "ping tx seq, count"
scalar StarLAN.host[2].pingApp[1] numOutOfOrderArrivals:last nan
attr interpolationmode none
attr title "ping out-of-order arrivals, last"
scalar StarLAN.host[2].pingApp[1] numLost:last nan
attr interpolationmode none
attr title "pings lost, last"
scalar StarLAN.host[2].pingApp[1] rtt:mean 0.0023860479011653
attr interpolationmode none
attr title "ping round-trip time, mean"
attr unit s
scalar StarLAN.host[2].pingApp[2] "Pings sent" 379
scalar StarLAN.host[2].pingApp[2] "ping loss rate (%)" 0
scalar StarLAN.host[2].pingApp[2] "ping out-of-order rate (%)" 0
scalar StarLAN.host[2].pingApp[2] pingRxSeq:count 287
attr interpolationmode none
attr title "ping rx seq, count"
scalar StarLAN.host[2].pingApp[2] pingTxSeq:count 287
attr interpolationmode none
attr title "ping tx seq, count"
scalar StarLAN.host[2].pingApp[2] numOutOfOrderArrivals:last nan
attr interpolationmode none
attr title "ping out-of-order arrivals, last"
scalar StarLAN.host[2].pingApp[2] numLost:last nan
attr interpolationmode none
attr title "pings lost, last"
scalar StarLAN.host[2].pingApp[2] rtt:mean 0.00290942374225
attr interpolationmode none
attr title "ping round-trip time, mean"
attr unit s
scalar StarLAN.host[2].pingApp[3] "Pings sent" 384
scalar StarLAN.host[2].pingApp[3] "ping loss rate (%)" 0
scalar StarLAN.host[2].pingApp[3] "ping out-of-order rate (%)" 0
scalar StarLAN.host[2].pingApp[3] pingRxSeq:count 287
attr interpolationmode none
attr title "ping rx seq, count"
scalar StarLAN.host[2].pingApp[3] pingTxSeq:count 287
attr interpolationmode none
attr title "ping tx seq, count"
scalar StarLAN.host[2].pingApp[3] numOutOfOrderArrivals:last nan
attr interpolationmode none
attr title "ping out-of-order arrivals, last"
scalar StarLAN.host[2].pingApp[3] numLost:last nan
attr interpolationmode none
attr title "pings lost, last"
scalar StarLAN.host[2].pingApp[3] rtt:mean 0.0025140365376981
attr interpolationmode none
attr title "ping round-trip time, mean"
attr unit s
scalar StarLAN.host[2].pingApp[4] "Pings sent" 379
scalar StarLAN.host[2].pingApp[4] "ping loss rate (%)" 0
scalar StarLAN.host[2].pingApp[4] "ping out-of-order rate (%)" 0
scalar StarLAN.host[2].pingApp[4] pingRxSeq:count 285
attr interpolationmode none
attr title "ping rx seq, count"
scalar StarLAN.host[2].pingApp[4] pingTxSeq:count 285
attr interpolationmode none
attr title "ping tx seq, count"
scalar StarLAN.host[2].pingApp[4] numOutOfOrderArrivals:last nan
attr interpolationmode none
attr title "ping out-of-order arrivals, last"
scalar StarLAN.host[2].pingApp[4] numLost:last nan
attr interpolationmode none
attr title "pings lost, last"
scalar StarLAN.host[2].pingApp[4] rtt:mean 0.0013922471631165
attr interpolationmode none
attr title "ping round-trip time, mean"
attr unit s
scalar StarLAN.host[2].pingApp[5] "Pings sent" 370
scalar StarLAN.host[2].pingApp[5] "ping loss rate (%)" 0
scalar StarLAN.host[2].pingApp[5] "ping out-of-order rate (%)" 0
scalar StarLAN.host[2].pingApp[5] pingRxSeq:count 286
attr interpolationmode none
attr title "ping rx seq, count"
scalar StarLAN.host[2].pingApp[5] pingTxSeq:count 286
attr interpolationmode none
attr title "ping tx seq, count"
scalar StarLAN.host[2].pingApp[5] numOutOfOrderArrivals:last nan
attr interpolationmode none
attr title "ping out-of-order arrivals, last"
scalar StarLAN.host[2].pingApp[5] numLost:last nan
attr interpolationmode none
attr title "pings lost, last"
scalar StarLAN.host[2].pingApp[5] rtt:mean 0.0010489229976679
attr interpolationmode none
attr title "ping round-trip time, mean"
attr unit s
scalar StarLAN.host[2].pingApp[6] "Pings sent" 411
scalar StarLAN.host[2].pingApp[6] "ping loss rate (%)" 0.24330900243309
scalar StarLAN.host[2].pingApp[6] "ping out-of-order rate (%)" 0
scalar StarLAN.host[2].pingApp[6] pingRxSeq:count 306
attr interpolationmode none
attr title "ping rx seq, count"
scalar StarLAN.host[2].pingApp[6] pingTxSeq:count 307
attr interpolationmode none
attr title "ping tx seq, count"
scalar StarLAN.host[2].pingApp[6] numOutOfOrderArrivals:last nan
attr interpolationmode none
attr title "ping out-of-order arrivals, last"
scalar StarLAN.host[2].pingApp[6] numLost:last nan
attr interpolationmode none
attr title "pings lost, last"
scalar StarLAN.host[2].pingApp[6] rtt:mean 0.0013000717441761
attr interpolationmode none
attr title "ping round-trip time, mean"
attr unit s
scalar StarLAN.host[2].pingApp[7] "Pings sent" 391
scalar StarLAN.host[2].pingApp[7] "ping loss rate (%)" 0
scalar StarLAN.host[2].pingApp[7] "ping out-of-order rate (%)" 0.25575447570332
scalar StarLAN.host[2].pingApp[7] pingRxSeq:count 296
attr interpolationmode none
attr title "ping rx seq, count"
scalar StarLAN.host[2].pingApp[7] pingTxSeq:count 296
attr interpolationmode none
attr title "ping tx seq, count"
scalar StarLAN.host[2].pingApp[7] numOutOfOrderArrivals:last 1
attr interpolationmode none
attr title "ping out-of-order arrivals, last"
scalar StarLAN.host[2].pingApp[7] numLost:last 0
attr interpolationmode none
attr title "pings lost, last"
scalar StarLAN.host[2].pingApp[7] rtt:mean 0.0015888030658284
attr interpolationmode none
attr title "ping round-trip time, mean"
attr unit s
scalar StarLAN.host[2].pingApp[8] "Pings sent" 382
scalar StarLAN.host[2].pingApp[8] "ping loss rate (%)" 0
scalar StarLAN.host[2].pingApp[8] "ping out-of-order rate (%)" 0
scalar StarLAN.host[2].pingApp[8] pingRxSeq:count 289
attr interpolationmode none
attr title "ping rx seq, count"
scalar StarLAN.host[2].pingApp[8] pingTxSeq:count 289
attr interpolationmode none
attr title "ping tx seq, count"
scalar StarLAN.host[2].pingApp[8] numOutOfOrderArrivals:last nan
attr interpolationmode none
attr title "ping out-of-order arrivals, last"
scalar StarLAN.host[2].pingApp[8] numLost:last nan
attr interpolationmode none
attr title "pings lost, last"
scalar StarLAN.host[2].pingApp[8] rtt:mean 0.001402787854323
attr interpolationmode none
attr title "ping round-trip time, mean"
attr unit s
scalar StarLAN.host[2].pingApp[9] "Pings sent" 387
scalar StarLAN.host[2].pingApp[9] "ping loss rate (%)" 0
scalar StarLAN.host[2].pingApp[9] "ping out-of-order rate (%)" 0
scalar StarLAN.host[2].pingApp[9] pingRxSeq:count 288
attr interpolationmode none
attr title "ping rx seq, count"
scalar StarLAN.host[2].pingApp[9] pingTxSeq:count 288
attr interpolationmode none
attr title "ping tx seq, count"
scalar StarLAN.host[2].pingApp[9] numOutOfOrderArrivals:last nan
attr interpolationmode none
attr title "ping out-of-order arrivals, last"
scalar StarLAN.host[2].pingApp[9] numLost:last nan
attr interpolationmode none
attr title "pings lost, last"
scalar StarLAN.host[2].pingApp[9] rtt:mean 0.0018091478088
attr interpolationmode none
attr title "ping round-trip time, mean"
attr unit s
scalar StarLAN.host[2].pingApp[10] "Pings sent" 370
scalar StarLAN.host[2].pingApp[10] "ping loss rate (%)" 0
scalar StarLAN.host[2].pingApp[10] "ping out-of-order rate (%)" 0.27027027027027
scalar StarLAN.host[2].pingApp[10] pingRxSeq:count 279
attr interpolationmode none
attr title "ping rx seq, count"
scalar StarLAN.host[2].pingApp[10] pingTxSeq:count 279
attr interpolationmode none
attr title "ping tx seq, count"
scalar StarLAN.host[2].pingApp[10] numOutOfOrderArrivals:last 1
attr interpolationmode none
attr title "ping out-of-order arrivals, last"
scalar StarLAN.host[2].pingApp[10] numLost:last 0
attr interpolationmode none
attr title "pings lost, last"
scalar StarLAN.host[2].pingApp[10] rtt:mean 0.0027659366999331
attr interpolationmode none
attr title "ping round-trip time, mean"
attr unit s
scalar StarLAN.host[2].pingApp[11] "Pings sent" 384
scalar StarLAN.host[2].pingApp[11] "ping loss rate (%)" 0
scalar StarLAN.host[2].pingApp[11] "ping out-of-order rate (%)" 0
scalar StarLAN.host[2].pingApp[11] pingRxSeq:count 297
attr interpolationmode none
attr title "ping rx seq, count"
scalar StarLAN.host[2].pingApp[11] pingTxSeq:count 297
attr interpolationmode none
attr title "ping tx seq, count"
scalar StarLAN.host[2].pingApp[11] numOutOfOrderArrivals:last nan
attr interpolationmode none
attr title "ping out-of-order arrivals, last"
scalar StarLAN.host[2].pingApp[11] numLost:last nan
attr interpolationmode none
attr title "pings lost, last"
scalar StarLAN.host[2].pingApp[11] rtt:mean 0.001029276397427
attr interpolationmode none
attr title "ping round-trip time, mean"
attr unit s
scalar StarLAN.host[2].pingApp[12] "Pings sent" 393
scalar StarLAN.host[2].pingApp[12] "ping loss rate (%)" 0
scalar StarLAN.host[2].pingApp[12] "ping out-of-order rate (%)" 0
scalar StarLAN.host[2].pingApp[12] pingRxSeq:count 309
attr interpolationmode none
attr title "ping rx seq, count"
scalar StarLAN.host[2].pingApp[12] pingTxSeq:count 309
attr interpolationmode none
attr title "ping tx seq, count"
scalar StarLAN.host[2].pingApp[12] numOutOfOrderArrivals:last nan
attr interpolationmode none
attr title "ping out-of-order arrivals, last"
scalar StarLAN.host[2].pingApp[12] numLost:last nan
attr interpolationmode none
attr title "pings lost, last"
scalar StarLAN.host[2].pingApp[12] rtt:mean 0.0022002651700218
attr interpolationmode none
attr title "ping round-trip time, mean"
attr unit s
scalar StarLAN.host[2].pingApp[13] "Pings sent" 378
scalar StarLAN.host[2].pingApp[13] "ping loss rate (%)" 0
scalar StarLAN.host[2].pingApp[13] "ping out-of-order rate (%)" 0.26455026455026
scalar StarLAN.host[2].pingApp[13] pingRxSeq:count 285
attr interpolationmode none
attr title "ping rx seq, count"
scalar StarLAN.host[2].pingApp[13] pingTxSeq:count 285
attr interpolationmode none
attr title "ping tx seq, count"
scalar StarLAN.host[2].pingApp[13] numOutOfOrderArrivals:last 1
attr interpolationmode none
attr title "ping out-of-order arrivals, last"
scalar StarLAN.host[2].pingApp[13] numLost:last 0
attr interpolationmode none
attr title "pings lost, last"
scalar StarLAN.host[2].pingApp[13] rtt:mean 0.001644144601093
attr interpolationmode none
attr title "ping round-trip time, mean"
attr unit s
scalar StarLAN.host[2].pingApp[14] "Pings sent" 389
scalar StarLAN.host[2].pingApp[14] "ping loss rate (%)" 0
scalar StarLAN.host[2].pingApp[14] "ping out-of-order rate (%)" 0
scalar StarLAN.host[2].pingApp[14] pingRxSeq:count 282
attr interpolationmode none
attr title "ping rx seq, count"
scalar StarLAN.host[2].pingApp[14] pingTxSeq:count 282
attr interpolationmode none
attr title "ping tx seq, count"
scalar StarLAN.host[2].pingApp[14] numOutOfOrderArrivals:last nan
attr interpolationmode none
attr title "ping out-of-order arrivals, last"
scalar StarLAN.host[2].pingApp[14] numLost:last nan
attr interpolationmode none
attr title "pings lost, last"
scalar StarLAN.host[2].pingApp[14] rtt:mean 0.0015591778537769
attr interpolationmode none
attr title "ping round-trip time, mean"
attr unit s
scalar StarLAN.host[2].pingApp[15] "Pings sent" 381
scalar StarLAN.host[2].pingApp[15] "ping loss rate (%)" 0.26246719160105
scalar StarLAN.host[2].pingApp[15] "ping out-of-order rate (%)" 0
scalar StarLAN.host[2].pingApp[15] pingRxSeq:count 288
attr interpolationmode none
attr title "ping rx seq, count"
scalar StarLAN.host[2].pingApp[15] pingTxSeq:count 289
attr interpolationmode none
attr title "ping tx seq, count"
scalar StarLAN.host[2].pingApp[15] numOutOfOrderArrivals:last nan
attr interpolationmode none
attr title "ping out-of-order arrivals, last"
scalar StarLAN.host[2].pingApp[15] numLost:last nan
attr interpolationmode none
attr title "pings lost, last"
scalar StarLAN.host[2].pingApp[15] rtt:mean 0.0024350130558168
attr interpolationmode none
attr title "ping round-trip time, mean"
attr unit s
scalar StarLAN.host[3].networkLayer.arp sentReply:count 0
attr title "ARP replies sent, count"
scalar StarLAN.host[3].networkLayer.arp sentReq:count 0
attr title "ARP request sent, count"
scalar StarLAN.host[3].networkLayer.arp failedARPResolution:count 0
attr title "ARP failed resolutions, count"
scalar StarLAN.host[3].networkLayer.arp completedARPResolution:count 0
attr title "ARP completed resolutions, count"
scalar StarLAN.host[3].networkLayer.arp initiatedARPResolution:count 0
attr title "ARP initiated resolutions, count"
scalar StarLAN.host[3].lo0.lo droppedPkBitError:count 0
attr interpolationmode none
attr source dropPkBitError
attr title "packets dropped/bit error, count"
scalar StarLAN.host[3].lo0.lo droppedPkBitError:sum(packetBytes) 0
attr interpolationmode none
attr source dropPkBitError
attr title "packets dropped/bit error, sum(packetBytes)"
scalar StarLAN.host[3].lo0.lo rcvdPkFromHL:count 1014
attr interpolationmode none
attr source packetReceivedFromUpper
attr title "packets received from higher layer, count"
scalar StarLAN.host[3].lo0.lo rcvdPkFromHL:sum(packetBytes) 498198
attr interpolationmode none
attr source packetReceivedFromUpper
attr title "packets received from higher layer, sum(packetBytes)"
scalar StarLAN.host[3].lo0.lo passedUpPk:count 1014
attr interpolationmode none
attr source packetSentToUpper
attr title "packets passed to higher layer, count"
scalar StarLAN.host[3].lo0.lo passedUpPk:sum(packetBytes) 498198
attr interpolationmode none
attr source packetSentToUpper
attr title "packets passed to higher layer, sum(packetBytes)"
scalar StarLAN.host[3].eth[0].queue.pauseQueue queueLength:max nan
attr interpolationmode sample-hold
attr title "queue length, max"
scalar StarLAN.host[3].eth[0].queue.pauseQueue queueLength:timeavg nan
attr interpolationmode sample-hold
attr title "queue length, timeavg"
statistic StarLAN.host[3].eth[0].queue.pauseQueue queueingTime:histogram
field count 0
field mean nan
field stddev nan
field min nan
field max nan
field sum 0
field sqrsum 0
attr interpolationmode none
attr title "queueing time, histogram"
bin	-inf	0
bin	-0.5	0
bin	-0.46666666666667	0
bin	-0.43333333333333	0
bin	-0.4	0
bin	-0.36666666666667	0
bin	-0.33333333333333	0
bin	-0.3	0
bin	-0.26666666666667	0
bin	-0.23333333333333	0
bin	-0.2	0
bin	-0.16666666666667	0
bin	-0.13333333333333	0
bin	-0.1	0
bin	-0.066666666666667	0
bin	-0.033333333333333	0
bin	0	0
bin	0.033333333333333	0
bin	0.066666666666667	0
bin	0.1	0
bin	0.13333333333333	0
bin	0.16666666666667	0
bin	0.2	0
bin	0.23333333333333	0
bin	0.26666666666667	0
bin	0.3	0
bin	0.33333333333333	0
bin	0.36666666666667	0
bin	0.4	0
bin	0.43333333333333	0
bin	0.46666666666667	0
bin	0.5	0
scalar StarLAN.host[3].eth[0].queue.pauseQueue dropPk:count 0
attr interpolationmode none
attr source dropPkByQueue
attr title "dropped packets, count"
scalar StarLAN.host[3].eth[0].queue.pauseQueue dropPk:sum(packetBytes) 0
attr interpolationmode none
attr source dropPkByQueue
attr title "dropped packets, sum(packetBytes)"
scalar StarLAN.host[3].eth[0].queue.pauseQueue rcvdPk:count 0
attr interpolationmode none
attr title "received packets, count"
scalar StarLAN.host[3].eth[0].queue.pauseQueue rcvdPk:sum(packetBytes) 0
attr interpolationmode none
attr title "received packets, sum(packetBytes)"
scalar StarLAN.host[3].eth[0].queue.dataQueue queueLength:max 4
attr interpolationmode sample-hold
attr title "queue length, max"
scalar StarLAN.host[3].eth[0].queue.dataQueue queueLength:timeavg 0.058607061462826
attr interpolationmode sample-hold
attr title "queue length, timeavg"
statistic StarLAN.host[3].eth[0].queue.dataQueue queueingTime:histogram
field count 8658
field mean 0.00010152486358212
field stddev 0.00022613140297673
field min 0
field max 0.001760926602
field sum 0.879002268894
field sqrsum 0.00053191984203347
attr interpolationmode none
attr title "queueing time, histogram"
bin	-inf	0
bin	-0.0006793339405	0
bin	-0.00058875608176667	0
bin	-0.00049817822303333	0
bin	-0.0004076003643	0
bin	-0.00031702250556667	0
bin	-0.00022644464683333	0
bin	-0.0001358667881	0
bin	-4.5288929366667e-005	6534
bin	4.5288929366667e-005	350
bin	0.0001358667881	306
bin	0.00022644464683333	323
bin	0.00031702250556667	288
bin	0.0004076003643	199
bin	0.00049817822303333	149
bin	0.00058875608176667	89
bin	0.0006793339405	85
bin	0.00076991179923333	220
bin	0.00086048965796667	37
bin	0.0009510675167	24
bin	0.0010416453754333	18
bin	0.0011322232341667	11
bin	0.0012228010929	11
bin	0.0013133789516333	6
bin	0.0014039568103667	4
bin	0.0014945346691	1
bin	0.0015851125278333	2
bin	0.0016756903865667	1
bin	0.0017662682453	0
bin	0.0018568461040333	0
bin	0.0019474239627667	0
bin	0.0020380018215	0
scalar StarLAN.host[3].eth[0].queue.dataQueue dropPk:count 0
attr interpolationmode none
attr source dropPkByQueue
attr title "dropped packets, count"
scalar StarLAN.host[3].eth[0].queue.dataQueue dropPk:sum(packetBytes) 0
attr interpolationmode none
attr source dropPkByQueue
attr title "dropped packets, sum(packetBytes)"
scalar StarLAN.host[3].eth[0].queue.dataQueue rcvdPk:count 8658
attr interpolationmode none
attr title "received packets, count"
scalar StarLAN.host[3].eth[0].queue.dataQueue rcvdPk:sum(packetBytes) 4574352
attr interpolationmode none
attr title "received packets, sum(packetBytes)"
scalar StarLAN.host[3].eth[0].mac "simulated time" 20
scalar StarLAN.host[3].eth[0].mac full-duplex 1
scalar StarLAN.host[3].eth[0].mac "frames/sec sent" 572
scalar StarLAN.host[3].eth[0].mac "frames/sec rcvd" 573.8
scalar StarLAN.host[3].eth[0].mac "bits/sec sent" 2424849.6
scalar StarLAN.host[3].eth[0].mac "bits/sec rcvd" 2425771.2
scalar StarLAN.host[3].eth[0].mac "rx channel idle (%)" 75.375056
scalar StarLAN.host[3].eth[0].mac "rx channel utilization (%)" 24.624944
scalar StarLAN.host[3].eth[0].mac rxPkFromHL:count 8658
attr interpolationmode none
attr source rxPkFromHL
attr title "packet bytes from higher layer, count"
scalar StarLAN.host[3].eth[0].mac rxPkFromHL:sum(packetBytes) 4574352
attr interpolationmode none
attr source rxPkFromHL
attr title "packet bytes from higher layer, sum(packetBytes)"
scalar StarLAN.host[3].eth[0].mac rxPausePkUnits:count 0
attr interpolationmode none
attr title "pause units received, count"
scalar StarLAN.host[3].eth[0].mac rxPausePkUnits:sum 0
attr interpolationmode none
attr title "pause units received, sum"
scalar StarLAN.host[3].eth[0].mac txPausePkUnits:count 0
attr interpolationmode none
attr title "pause units sent, count"
scalar StarLAN.host[3].eth[0].mac txPausePkUnits:sum 0
attr interpolationmode none
attr title "pause units sent, sum"
scalar StarLAN.host[3].eth[0].mac txPk:count 8658
attr interpolationmode none
attr source txPk
attr title "packets transmitted, count"
scalar StarLAN.host[3].eth[0].mac txPk:sum(packetBytes) 4574352
attr interpolationmode none
attr source txPk
attr title "packets transmitted, sum(packetBytes)"
scalar StarLAN.host[3].eth[0].mac droppedPkNotForUs:count 0
attr interpolationmode none
attr source dropPkNotForUs
attr title "packets dropped/not for us, count"
scalar StarLAN.host[3].eth[0].mac droppedPkNotForUs:sum(packetBytes) 0
attr interpolationmode none
attr source dropPkNotForUs
attr title "packets dropped/not for us, sum(packetBytes)"
scalar StarLAN.host[3].eth[0].mac droppedPkBitError:count 0
attr interpolationmode none
attr source dropPkBitError
attr title "packets dropped/bit error, count"
scalar StarLAN.host[3].eth[0].mac droppedPkBitError:sum(packetBytes) 0
attr interpolationmode none
attr source dropPkBitError
attr title "packets dropped/bit error, sum(packetBytes)"
scalar StarLAN.host[3].eth[0].mac droppedPkIfaceDown:count 0
attr interpolationmode none
attr source dropPkIfaceDown
attr title "packets dropped/interface down, count"
scalar StarLAN.host[3].eth[0].mac droppedPkIfaceDown:sum(packetBytes) 0
attr interpolationmode none
attr source dropPkIfaceDown
attr title "packets dropped/interface down, sum(packetBytes)"
scalar StarLAN.host[3].eth[0].mac rxPkOk:count 8658
attr interpolationmode none
attr source rxPkOk
attr title "packets received OK, count"
scalar StarLAN.host[3].eth[0].mac rxPkOk:sum(packetBytes) 4574352
attr interpolationmode none
attr source rxPkOk
attr title "packets received OK, sum(packetBytes)"
scalar StarLAN.host[3].eth[0].mac passedUpPk:count 8658
attr interpolationmode none
attr source packetSentToUpper
attr title "packets passed to higher layer, count"
scalar StarLAN.host[3].eth[0].mac passedUpPk:sum(packetBytes) 4574352
attr interpolationmode none
attr source packetSentToUpper
attr title "packets passed to higher layer, sum(packetBytes)"
scalar StarLAN.host[3].eth[0].encap pauseSent:count 0
attr title "pause sent, count"
scalar StarLAN.host[3].eth[0].encap pauseSent:sum 0
attr title "pause sent, sum"
scalar StarLAN.host[3].eth[0].encap decapPk:count 8658
attr interpolationmode none
attr source decapPk
attr title "packets decapsulated, count"
scalar StarLAN.host[3].eth[0].encap decapPk:sum(packetBytes) 4417592
attr interpolationmode none
attr source decapPk
attr title "packets decapsulated, sum(packetBytes)"
scalar StarLAN.host[3].eth[0].encap encapPk:count 8658
attr interpolationmode none
attr source encapPk
attr title "packets encapsulated, count"
scalar StarLAN.host[3].eth[0].encap encapPk:sum(packetBytes) 4417592
attr interpolationmode none
attr source encapPk
attr title "packets encapsulated, sum(packetBytes)"
scalar StarLAN.host[3].pingApp[0] "Pings sent" 373
scalar StarLAN.host[3].pingApp[0] "ping loss rate (%)" 0
scalar StarLAN.host[3].pingApp[0] "ping out-of-order rate (%)" 0
scalar StarLAN.host[3].pingApp[0] pingRxSeq:count 285
attr interpolationmode none
attr title "ping rx seq, count"
scalar StarLAN.host[3].pingApp[0] pingTxSeq:count 285
attr interpolationmode none
attr title "ping tx seq, count"
scalar StarLAN.host[3].pingApp[0] numOutOfOrderArrivals:last nan
attr interpolationmode none
attr title "ping out-of-order arrivals, last"
scalar StarLAN.host[3].pingApp[0] numLost:last nan
attr interpolationmode none
attr title "pings lost, last"
scalar StarLAN.host[3].pingApp[0] rtt:mean 0.0021502644011719
attr interpolationmode none
attr title "ping round-trip time, mean"
attr unit s
scalar StarLAN.host[3].pingApp[1] "Pings sent" 394
scalar StarLAN.host[3].pingApp[1] "ping loss rate (%)" 0
scalar StarLAN.host[3].pingApp[1] "ping out-of-order rate (%)" 0
scalar StarLAN.host[3].pingApp[1] pingRxSeq:count 303
attr interpolationmode none
attr title "ping rx seq, count"
scalar StarLAN.host[3].pingApp[1] pingTxSeq:count 303
attr interpolationmode none
attr title "ping tx seq, count"
scalar StarLAN.host[3].pingApp[1] numOutOfOrderArrivals:last nan
attr interpolationmode none
attr title "ping out-of-order arrivals, last"
scalar StarLAN.host[3].pingApp[1] numLost:last nan
attr interpolationmode none
attr title "pings lost, last"
scalar StarLAN.host[3].pingApp[1] rtt:mean 0.0015813451074948
attr interpolationmode none
attr title "ping round-trip time, mean"
attr unit s
scalar StarLAN.host[3].pingApp[2] "Pings sent" 389
scalar StarLAN.host[3].pingApp[2] "ping loss rate (%)" 0
scalar StarLAN.host[3].pingApp[2] "ping out-of-order rate (%)" 0
scalar StarLAN.host[3].pingApp[2] pingRxSeq:count 290
attr interpolationmode none
attr title "ping rx seq, count"
scalar StarLAN.host[3].pingApp[2] pingTxSeq:count 290
attr interpolationmode none
attr title "ping tx seq, count"
scalar StarLAN.host[3].pingApp[2] numOutOfOrderArrivals:last nan
attr interpolationmode none
attr title "ping out-of-order arrivals, last"
scalar StarLAN.host[3].pingApp[2] numLost:last nan
attr interpolationmode none
attr title "pings lost, last"
scalar StarLAN.host[3].pingApp[2] rtt:mean 0.0017674359098207
attr interpolationmode none
attr title "ping round-trip time, mean"
attr unit s
scalar StarLAN.host[3].pingApp[3] "Pings sent" 390
scalar StarLAN.host[3].pingApp[3] "ping loss rate (%)" 0
scalar StarLAN.host[3].pingApp[3] "ping out-of-order rate (%)" 0
scalar StarLAN.host[3].pingApp[3] pingRxSeq:count 288
attr interpolationmode none
attr title "ping rx seq, count"
scalar StarLAN.host[3].pingApp[3] pingTxSeq:count 288
attr interpolationmode none
attr title "ping tx seq, count"
scalar StarLAN.host[3].pingApp[3] numOutOfOrderArrivals:last nan
attr interpolationmode none
attr title "ping out-of-order arrivals, last"
scalar StarLAN.host[3].pingApp[3] numLost:last nan
attr interpolationmode none
attr title "pings lost, last"
scalar StarLAN.host[3].pingApp[3] rtt:mean 0.0023132996781931
attr interpolationmode none
attr title "ping round-trip time, mean"
attr unit s
scalar StarLAN.host[3].pingApp[4] "Pings sent" 387
scalar StarLAN.host[3].pingApp[4] "ping loss rate (%)" 0
scalar StarLAN.host[3].pingApp[4] "ping out-of-order rate (%)" 0
scalar StarLAN.host[3].pingApp[4] pingRxSeq:count 299
attr interpolationmode none
[...]
scalar StarLAN.router.eth[7].queue.dataQueue queueLength:timeavg 0.090203510688993
attr interpolationmode sample-hold
attr title "queue length, timeavg"
statistic StarLAN.router.eth[7].queue.dataQueue queueingTime:histogram
field count 9022
field mean 0.00014996611705487
field stddev 0.00028487389728128
field min 0
field max 0.0019728
field sum 1.352994308069
field sqrsum 0.00093498575483289
attr interpolationmode none
attr title "queueing time, histogram"
bin	-inf	0
bin	-0.0005723425715	0
bin	-0.00049603022863333	0
bin	-0.00041971788576667	0
bin	-0.0003434055429	0
bin	-0.00026709320003333	0
bin	-0.00019078085716667	0
bin	-0.0001144685143	0
bin	-3.8156171433333e-005	6283
bin	3.8156171433333e-005	269
bin	0.0001144685143	262
bin	0.00019078085716667	273
bin	0.00026709320003333	258
bin	0.0003434055429	222
bin	0.00041971788576667	193
bin	0.00049603022863333	164
bin	0.0005723425715	143
bin	0.00064865491436667	320
bin	0.00072496725723333	305
bin	0.0008012796001	65
bin	0.00087759194296667	60
bin	0.00095390428583333	41
bin	0.0010302166287	42
bin	0.0011065289715667	31
bin	0.0011828413144333	29
bin	0.0012591536573	30
bin	0.0013354660001667	15
bin	0.0014117783430333	4
bin	0.0014880906859	5
bin	0.0015644030287667	0
bin	0.0016407153716333	1
bin	0.0017170277145	7
scalar StarLAN.router.eth[7].queue.dataQueue dropPk:count 0
attr interpolationmode none
attr source dropPkByQueue
attr title "dropped packets, count"
scalar StarLAN.router.eth[7].queue.dataQueue dropPk:sum(packetBytes) 0
attr interpolationmode none
attr source dropPkByQueue
attr title "dropped packets, sum(packetBytes)"
scalar StarLAN.router.eth[7].queue.dataQueue rcvdPk:count 9022
attr interpolationmode none
attr title "received packets, count"
scalar StarLAN.router.eth[7].queue.dataQueue rcvdPk:sum(packetBytes) 5149808
attr interpolationmode none
attr title "received packets, sum(packetBytes)"
scalar StarLAN.router.eth[7].mac "simulated time" 20
scalar StarLAN.router.eth[7].mac full-duplex 1
scalar StarLAN.router.eth[7].mac "frames/sec sent" 603.45
scalar StarLAN.router.eth[7].mac "frames/sec rcvd" 601.75
scalar StarLAN.router.eth[7].mac "bits/sec sent" 2752168
scalar StarLAN.router.eth[7].mac "bits/sec rcvd" 2751506.4
scalar StarLAN.router.eth[7].mac "rx channel idle (%)" 72.099816
scalar StarLAN.router.eth[7].mac "rx channel utilization (%)" 27.900184
scalar StarLAN.router.eth[7].mac "rx channel collision (%)" 0
scalar StarLAN.router.eth[7].mac collisions 0
scalar StarLAN.router.eth[7].mac backoffs 0
scalar StarLAN.router.eth[7].mac backoff:count 0
attr interpolationmode none
attr title "backoff, count"
scalar StarLAN.router.eth[7].mac collision:count 0
attr interpolationmode none
attr title "collision, count"
scalar StarLAN.router.eth[7].mac rxPkFromHL:count 9022
attr interpolationmode none
attr source rxPkFromHL
attr title "packet bytes from higher layer, count"
scalar StarLAN.router.eth[7].mac rxPkFromHL:sum(packetBytes) 5149808
attr interpolationmode none
attr source rxPkFromHL
attr title "packet bytes from higher layer, sum(packetBytes)"
scalar StarLAN.router.eth[7].mac rxPausePkUnits:count 0
attr interpolationmode none
attr title "pause units received, count"
scalar StarLAN.router.eth[7].mac rxPausePkUnits:sum 0
attr interpolationmode none
attr title "pause units received, sum"
scalar StarLAN.router.eth[7].mac txPausePkUnits:count 0
attr interpolationmode none
attr title "pause units sent, count"
scalar StarLAN.router.eth[7].mac txPausePkUnits:sum 0
attr interpolationmode none
attr title "pause units sent, sum"
scalar StarLAN.router.eth[7].mac txPk:count 9023
attr interpolationmode none
attr source txPk
attr title "packets transmitted, count"
scalar StarLAN.router.eth[7].mac txPk:sum(packetBytes) 5150404
attr interpolationmode none
attr source txPk
attr title "packets transmitted, sum(packetBytes)"
scalar StarLAN.router.eth[7].mac droppedPkNotForUs:count 0
attr interpolationmode none
attr source dropPkNotForUs
attr title "packets dropped/not for us, count"
scalar StarLAN.router.eth[7].mac droppedPkNotForUs:sum(packetBytes) 0
attr interpolationmode none
attr source dropPkNotForUs
attr title "packets dropped/not for us, sum(packetBytes)"
scalar StarLAN.router.eth[7].mac droppedPkBitError:count 0
attr interpolationmode none
attr source dropPkBitError
attr title "packets dropped/bit error, count"
scalar StarLAN.router.eth[7].mac droppedPkBitError:sum(packetBytes) 0
attr interpolationmode none
attr source dropPkBitError
attr title "packets dropped/bit error, sum(packetBytes)"
scalar StarLAN.router.eth[7].mac droppedPkIfaceDown:count 0
attr interpolationmode none
attr source dropPkIfaceDown
attr title "packets dropped/interface down, count"
scalar StarLAN.router.eth[7].mac droppedPkIfaceDown:sum(packetBytes) 0
attr interpolationmode none
attr source dropPkIfaceDown
attr title "packets dropped/interface down, sum(packetBytes)"
scalar StarLAN.router.eth[7].mac rxPkOk:count 9026
attr interpolationmode none
attr source rxPkOk
attr title "packets received OK, count"
scalar StarLAN.router.eth[7].mac rxPkOk:sum(packetBytes) 5151486
attr interpolationmode none
attr source rxPkOk
attr title "packets received OK, sum(packetBytes)"
scalar StarLAN.router.eth[7].mac passedUpPk:count 9026
attr interpolationmode none
attr source packetSentToUpper
attr title "packets passed to higher layer, count"
scalar StarLAN.router.eth[7].mac passedUpPk:sum(packetBytes) 5151486
attr interpolationmode none
attr source packetSentToUpper
attr title "packets passed to higher layer, sum(packetBytes)"
scalar StarLAN.router.eth[8].queue.pauseQueue queueLength:max nan
attr interpolationmode sample-hold
attr title "queue length, max"
scalar StarLAN.router.eth[8].queue.pauseQueue queueLength:timeavg nan
attr interpolationmode sample-hold
attr title "queue length, timeavg"
statistic StarLAN.router.eth[8].queue.pauseQueue queueingTime:histogram
field count 0
field mean nan
field stddev nan
field min nan
field max nan
field sum 0
field sqrsum 0
attr interpolationmode none
attr title "queueing time, histogram"
bin	-inf	0
bin	-0.5	0
bin	-0.46666666666667	0
bin	-0.43333333333333	0
bin	-0.4	0
bin	-0.36666666666667	0
bin	-0.33333333333333	0
bin	-0.3	0
bin	-0.26666666666667	0
bin	-0.23333333333333	0
bin	-0.2	0
bin	-0.16666666666667	0
bin	-0.13333333333333	0
bin	-0.1	0
bin	-0.066666666666667	0
bin	-0.033333333333333	0
bin	0	0
bin	0.033333333333333	0
bin	0.066666666666667	0
bin	0.1	0
bin	0.13333333333333	0
bin	0.16666666666667	0
bin	0.2	0
bin	0.23333333333333	0
bin	0.26666666666667	0
bin	0.3	0
bin	0.33333333333333	0
bin	0.36666666666667	0
bin	0.4	0
bin	0.43333333333333	0
bin	0.46666666666667	0
bin	0.5	0
scalar StarLAN.router.eth[8].queue.pauseQueue dropPk:count 0
attr interpolationmode none
attr source dropPkByQueue
attr title "dropped packets, count"
scalar StarLAN.router.eth[8].queue.pauseQueue dropPk:sum(packetBytes) 0
attr interpolationmode none
attr source dropPkByQueue
attr title "dropped packets, sum(packetBytes)"
scalar StarLAN.router.eth[8].queue.pauseQueue rcvdPk:count 0
attr interpolationmode none
attr title "received packets, count"
scalar StarLAN.router.eth[8].queue.pauseQueue rcvdPk:sum(packetBytes) 0
attr interpolationmode none
attr title "received packets, sum(packetBytes)"
scalar StarLAN.router.eth[8].queue.dataQueue queueLength:max 6
attr interpolationmode sample-hold
attr title "queue length, max"
scalar StarLAN.router.eth[8].queue.dataQueue queueLength:timeavg 0.077947000153275
attr interpolationmode sample-hold
attr title "queue length, timeavg"
statistic StarLAN.router.eth[8].queue.dataQueue queueingTime:histogram
field count 8757
field mean 0.00013338752841864
field stddev 0.00027050910640357
field min 0
field max 0.002190151053
field sum 1.168074586362
field sqrsum 0.00079652842880686
attr interpolationmode none
attr title "queueing time, histogram"
bin	-inf	0
bin	-0.000567828692	0
bin	-0.00049211819973333	0
bin	-0.00041640770746667	0
bin	-0.0003406972152	0
bin	-0.00026498672293333	0
bin	-0.00018927623066667	0
bin	-0.0001135657384	0
bin	-3.7855246133333e-005	6255
bin	3.7855246133333e-005	308
bin	0.0001135657384	269
bin	0.00018927623066667	231
bin	0.00026498672293333	248
bin	0.0003406972152	228
bin	0.00041640770746667	181
bin	0.00049211819973333	138
bin	0.000567828692	160
bin	0.00064353918426667	180
bin	0.00071924967653333	277
bin	0.0007949601688	78
bin	0.00087067066106667	35
bin	0.00094638115333333	36
bin	0.0010220916456	30
bin	0.0010978021378667	26
bin	0.0011735126301333	19
bin	0.0012492231224	15
bin	0.0013249336146667	6
bin	0.0014006441069333	13
bin	0.0014763545992	8
bin	0.0015520650914667	9
bin	0.0016277755837333	3
bin	0.001703486076	4
scalar StarLAN.router.eth[8].queue.dataQueue dropPk:count 0
attr interpolationmode none
attr source dropPkByQueue
attr title "dropped packets, count"
scalar StarLAN.router.eth[8].queue.dataQueue dropPk:sum(packetBytes) 0
attr interpolationmode none
attr source dropPkByQueue
attr title "dropped packets, sum(packetBytes)"
scalar StarLAN.router.eth[8].queue.dataQueue rcvdPk:count 8759
attr interpolationmode none
attr title "received packets, count"
scalar StarLAN.router.eth[8].queue.dataQueue rcvdPk:sum(packetBytes) 5036062
attr interpolationmode none
attr title "received packets, sum(packetBytes)"
scalar StarLAN.router.eth[8].mac "simulated time" 20
scalar StarLAN.router.eth[8].mac full-duplex 1
scalar StarLAN.router.eth[8].mac "frames/sec sent" 579.1
scalar StarLAN.router.eth[8].mac "frames/sec rcvd" 577.5
scalar StarLAN.router.eth[8].mac "bits/sec sent" 2653572.4
scalar StarLAN.router.eth[8].mac "bits/sec rcvd" 2653456
scalar StarLAN.router.eth[8].mac "rx channel idle (%)" 73.09584
scalar StarLAN.router.eth[8].mac "rx channel utilization (%)" 26.90416
scalar StarLAN.router.eth[8].mac "rx channel collision (%)" 0
scalar StarLAN.router.eth[8].mac collisions 0
scalar StarLAN.router.eth[8].mac backoffs 0
scalar StarLAN.router.eth[8].mac backoff:count 0
attr interpolationmode none
attr title "backoff, count"
scalar StarLAN.router.eth[8].mac collision:count 0
attr interpolationmode none
attr title "collision, count"
scalar StarLAN.router.eth[8].mac rxPkFromHL:count 8757
attr interpolationmode none
attr source rxPkFromHL
attr title "packet bytes from higher layer, count"
scalar StarLAN.router.eth[8].mac rxPkFromHL:sum(packetBytes) 5035466
attr interpolationmode none
attr source rxPkFromHL
attr title "packet bytes from higher layer, sum(packetBytes)"
scalar StarLAN.router.eth[8].mac rxPausePkUnits:count 0
attr interpolationmode none
attr title "pause units received, count"
scalar StarLAN.router.eth[8].mac rxPausePkUnits:sum 0
attr interpolationmode none
attr title "pause units received, sum"
scalar StarLAN.router.eth[8].mac txPausePkUnits:count 0
attr interpolationmode none
attr title "pause units sent, count"
scalar StarLAN.router.eth[8].mac txPausePkUnits:sum 0
attr interpolationmode none
attr title "pause units sent, sum"
scalar StarLAN.router.eth[8].mac txPk:count 8756
attr interpolationmode none
attr source txPk
attr title "packets transmitted, count"
scalar StarLAN.router.eth[8].mac txPk:sum(packetBytes) 5034428
attr interpolationmode none
attr source txPk
attr title "packets transmitted, sum(packetBytes)"
scalar StarLAN.router.eth[8].mac droppedPkNotForUs:count 0
attr interpolationmode none
attr source dropPkNotForUs
attr title "packets dropped/not for us, count"
scalar StarLAN.router.eth[8].mac droppedPkNotForUs:sum(packetBytes) 0
attr interpolationmode none
attr source dropPkNotForUs
attr title "packets dropped/not for us, sum(packetBytes)"
scalar StarLAN.router.eth[8].mac droppedPkBitError:count 0
attr interpolationmode none
attr source dropPkBitError
attr title "packets dropped/bit error, count"
scalar StarLAN.router.eth[8].mac droppedPkBitError:sum(packetBytes) 0
attr interpolationmode none
attr source dropPkBitError
attr title "packets dropped/bit error, sum(packetBytes)"
scalar StarLAN.router.eth[8].mac droppedPkIfaceDown:count 0
attr interpolationmode none
attr source dropPkIfaceDown
attr title "packets dropped/interface down, count"
scalar StarLAN.router.eth[8].mac droppedPkIfaceDown:sum(packetBytes) 0
attr interpolationmode none
attr source dropPkIfaceDown
attr title "packets dropped/interface down, sum(packetBytes)"
scalar StarLAN.router.eth[8].mac rxPkOk:count 8759
attr interpolationmode none
attr source rxPkOk
attr title "packets received OK, count"
scalar StarLAN.router.eth[8].mac rxPkOk:sum(packetBytes) 5035562
attr interpolationmode none
attr source rxPkOk
attr title "packets received OK, sum(packetBytes)"
scalar StarLAN.router.eth[8].mac passedUpPk:count 8759
attr interpolationmode none
attr source packetSentToUpper
attr title "packets passed to higher layer, count"
scalar StarLAN.router.eth[8].mac passedUpPk:sum(packetBytes) 5035562
attr interpolationmode none
attr source packetSentToUpper
attr title "packets passed to higher layer, sum(packetBytes)"
scalar StarLAN.router.eth[9].queue.pauseQueue queueLength:max nan
attr interpolationmode sample-hold
attr title "queue length, max"
scalar StarLAN.router.eth[9].queue.pauseQueue queueLength:timeavg nan
attr interpolationmode sample-hold
attr title "queue length, timeavg"
statistic StarLAN.router.eth[9].queue.pauseQueue queueingTime:histogram
field count 0
field mean nan
field stddev nan
field min nan
field max nan
field sum 0
field sqrsum 0
attr interpolationmode none
attr title "queueing time, histogram"
bin	-inf	0
bin	-0.5	0
bin	-0.46666666666667	0
bin	-0.43333333333333	0
bin	-0.4	0
bin	-0.36666666666667	0
bin	-0.33333333333333	0
bin	-0.3	0
bin	-0.26666666666667	0
bin	-0.23333333333333	0
bin	-0.2	0
bin	-0.16666666666667	0
bin	-0.13333333333333	0
bin	-0.1	0
bin	-0.066666666666667	0
bin	-0.033333333333333	0
bin	0	0
bin	0.033333333333333	0
bin	0.066666666666667	0
bin	0.1	0
bin	0.13333333333333	0
bin	0.16666666666667	0
bin	0.2	0
bin	0.23333333333333	0
bin	0.26666666666667	0
bin	0.3	0
bin	0.33333333333333	0
bin	0.36666666666667	0
bin	0.4	0
bin	0.43333333333333	0
bin	0.46666666666667	0
bin	0.5	0
scalar StarLAN.router.eth[9].queue.pauseQueue dropPk:count 0
attr interpolationmode none
attr source dropPkByQueue
attr title "dropped packets, count"
scalar StarLAN.router.eth[9].queue.pauseQueue dropPk:sum(packetBytes) 0
attr interpolationmode none
attr source dropPkByQueue
attr title "dropped packets, sum(packetBytes)"
scalar StarLAN.router.eth[9].queue.pauseQueue rcvdPk:count 0
attr interpolationmode none
attr title "received packets, count"
scalar StarLAN.router.eth[9].queue.pauseQueue rcvdPk:sum(packetBytes) 0
attr interpolationmode none
attr title "received packets, sum(packetBytes)"
scalar StarLAN.router.eth[9].queue.dataQueue queueLength:max 6
attr interpolationmode sample-hold
attr title "queue length, max"
scalar StarLAN.router.eth[9].queue.dataQueue queueLength:timeavg 0.077584970049867
attr interpolationmode sample-hold
attr title "queue length, timeavg"
statistic StarLAN.router.eth[9].queue.dataQueue queueingTime:histogram
field count 8795
field mean 0.00013231323275543
field stddev 0.00026832292915024
field min 0
field max 0.002577833962
field sum 1.163694882084
field sqrsum 0.00078711555853196
attr interpolationmode none
attr title "queueing time, histogram"
bin	-inf	0
bin	-0.0004992	0
bin	-0.00043264	0
bin	-0.00036608	0
bin	-0.00029952	0
bin	-0.00023296	0
bin	-0.0001664	0
bin	-9.984e-005	0
bin	-3.328e-005	6257
bin	3.328e-005	239
bin	9.984e-005	232
bin	0.0001664	249
bin	0.00023296	223
bin	0.00029952	212
bin	0.00036608	183
bin	0.00043264	153
bin	0.0004992	143
bin	0.00056576	305
bin	0.00063232	144
bin	0.00069888	128
bin	0.00076544	89
bin	0.000832	39
bin	0.00089856	43
bin	0.00096512	27
bin	0.00103168	36
bin	0.00109824	16
bin	0.0011648	17
bin	0.00123136	9
bin	0.00129792	10
bin	0.00136448	4
bin	0.00143104	13
bin	0.0014976	24
scalar StarLAN.router.eth[9].queue.dataQueue dropPk:count 0
attr interpolationmode none
attr source dropPkByQueue
attr title "dropped packets, count"
scalar StarLAN.router.eth[9].queue.dataQueue dropPk:sum(packetBytes) 0
attr interpolationmode none
attr source dropPkByQueue
attr title "dropped packets, sum(packetBytes)"
scalar StarLAN.router.eth[9].queue.dataQueue rcvdPk:count 8795
attr interpolationmode none
attr title "received packets, count"
scalar StarLAN.router.eth[9].queue.dataQueue rcvdPk:sum(packetBytes) 4973469
attr interpolationmode none
attr title "received packets, sum(packetBytes)"
scalar StarLAN.router.eth[9].mac "simulated time" 20
scalar StarLAN.router.eth[9].mac full-duplex 1
scalar StarLAN.router.eth[9].mac "frames/sec sent" 578.85
scalar StarLAN.router.eth[9].mac "frames/sec rcvd" 577.05
scalar StarLAN.router.eth[9].mac "bits/sec sent" 2608130
scalar StarLAN.router.eth[9].mac "bits/sec rcvd" 2607186.8
scalar StarLAN.router.eth[9].mac "rx channel idle (%)" 73.55882
scalar StarLAN.router.eth[9].mac "rx channel utilization (%)" 26.44118
scalar StarLAN.router.eth[9].mac "rx channel collision (%)" 0
scalar StarLAN.router.eth[9].mac collisions 0
scalar StarLAN.router.eth[9].mac backoffs 0
scalar StarLAN.router.eth[9].mac backoff:count 0
attr interpolationmode none
attr title "backoff, count"
scalar StarLAN.router.eth[9].mac collision:count 0
attr interpolationmode none
attr title "collision, count"
scalar StarLAN.router.eth[9].mac rxPkFromHL:count 8795
attr interpolationmode none
attr source rxPkFromHL
attr title "packet bytes from higher layer, count"
scalar StarLAN.router.eth[9].mac rxPkFromHL:sum(packetBytes) 4973469
attr interpolationmode none
attr source rxPkFromHL
attr title "packet bytes from higher layer, sum(packetBytes)"
scalar StarLAN.router.eth[9].mac rxPausePkUnits:count 0
attr interpolationmode none
attr title "pause units received, count"
scalar StarLAN.router.eth[9].mac rxPausePkUnits:sum 0
attr interpolationmode none
attr title "pause units received, sum"
scalar StarLAN.router.eth[9].mac txPausePkUnits:count 0
attr interpolationmode none
attr title "pause units sent, count"
scalar StarLAN.router.eth[9].mac txPausePkUnits:sum 0
attr interpolationmode none
attr title "pause units sent, sum"
scalar StarLAN.router.eth[9].mac txPk:count 8794
attr interpolationmode none
attr source txPk
attr title "packets transmitted, count"
scalar StarLAN.router.eth[9].mac txPk:sum(packetBytes) 4972827
attr interpolationmode none
attr source txPk
attr title "packets transmitted, sum(packetBytes)"
scalar StarLAN.router.eth[9].mac droppedPkNotForUs:count 0
attr interpolationmode none
attr source dropPkNotForUs
attr title "packets dropped/not for us, count"
scalar StarLAN.router.eth[9].mac droppedPkNotForUs:sum(packetBytes) 0
attr interpolationmode none
attr source dropPkNotForUs
attr title "packets dropped/not for us, sum(packetBytes)"
scalar StarLAN.router.eth[9].mac droppedPkBitError:count 0
attr interpolationmode none
attr source dropPkBitError
attr title "packets dropped/bit error, count"
scalar StarLAN.router.eth[9].mac droppedPkBitError:sum(packetBytes) 0
attr interpolationmode none
attr source dropPkBitError
attr title "packets dropped/bit error, sum(packetBytes)"
scalar StarLAN.router.eth[9].mac droppedPkIfaceDown:count 0
attr interpolationmode none
attr source dropPkIfaceDown
attr title "packets dropped/interface down, count"
scalar StarLAN.router.eth[9].mac droppedPkIfaceDown:sum(packetBytes) 0
attr interpolationmode none
attr source dropPkIfaceDown
attr title "packets dropped/interface down, sum(packetBytes)"
scalar StarLAN.router.eth[9].mac rxPkOk:count 8793
attr interpolationmode none
attr source rxPkOk
attr title "packets received OK, count"
scalar StarLAN.router.eth[9].mac rxPkOk:sum(packetBytes) 4972177
attr interpolationmode none
attr source rxPkOk
attr title "packets received OK, sum(packetBytes)"
scalar StarLAN.router.eth[9].mac passedUpPk:count 8793
attr interpolationmode none
attr source packetSentToUpper
attr title "packets passed to higher layer, count"
scalar StarLAN.router.eth[9].mac passedUpPk:sum(packetBytes) 4972177
attr interpolationmode none
attr source packetSentToUpper
attr title "packets passed to higher layer, sum(packetBytes)"

