version 2
run StarLAN10-packetsize-0-20180110-19:21:14-14824
attr configname StarLAN10-packetsize
attr datetime 20180110-19:21:14
attr experiment StarLAN10-packetsize
attr inifile StarLAN.ini
attr iterationvars $pa=2
attr iterationvarsf pa=2-
attr measurement $pa=2
attr network StarLAN
attr processid 14824
attr repetition 0
attr replication #0
attr resultdir results
attr runnumber 0
attr seedset 0
itervar pa 2
param *.numHosts 10
param **.datarate 10Mbps
param **.host[*].pingApp[*].sendInterval "truncnormal(50ms, 25ms)"
param **.host[*].pingApp[*].packetSize "truncnormal(512B, 256B)"
param **.queueType "\"DropTailQueue\""
param **.frameCapacity 10
param **.mtu 1024B
param **.host[*].numPingApps 2
param **.host[*].pingApp[*].typename "\"PingApp\""
param **.host[*].pingApp[*].count 1
param **.host[*].pingApp[*].startTime "truncnormal(200ms, 100ms)"
param **.host[*].pingApp[*].destAddr "\"*\""

scalar StarLAN.host[0].networkLayer.arp sentReply:count 0
attr title "ARP replies sent, count"
scalar StarLAN.host[0].networkLayer.arp sentReq:count 0
attr title "ARP request sent, count"
scalar StarLAN.host[0].networkLayer.arp failedARPResolution:count 0
attr title "ARP failed resolutions, count"
scalar StarLAN.host[0].networkLayer.arp completedARPResolution:count 0
attr title "ARP completed resolutions, count"
scalar StarLAN.host[0].networkLayer.arp initiatedARPResolution:count 0
attr title "ARP initiated resolutions, count"
scalar StarLAN.host[0].lo0.lo droppedPkBitError:count 0
attr interpolationmode none
attr source dropPkBitError
attr title "packets dropped/bit error, count"
scalar StarLAN.host[0].lo0.lo droppedPkBitError:sum(packetBytes) 0
attr interpolationmode none
attr source dropPkBitError
attr title "packets dropped/bit error, sum(packetBytes)"
scalar StarLAN.host[0].lo0.lo rcvdPkFromHL:count 124
attr interpolationmode none
attr source packetReceivedFromUpper
attr title "packets received from higher layer, count"
scalar StarLAN.host[0].lo0.lo rcvdPkFromHL:sum(packetBytes) 61784
attr interpolationmode none
attr source packetReceivedFromUpper
attr title "packets received from higher layer, sum(packetBytes)"
scalar StarLAN.host[0].lo0.lo passedUpPk:count 124
attr interpolationmode none
attr source packetSentToUpper
attr title "packets passed to higher layer, count"
scalar StarLAN.host[0].lo0.lo passedUpPk:sum(packetBytes) 61784
attr interpolationmode none
attr source packetSentToUpper
attr title "packets passed to higher layer, sum(packetBytes)"
scalar StarLAN.host[0].eth[0].queue.pauseQueue queueLength:max nan
attr interpolationmode sample-hold
attr title "queue length, max"
scalar StarLAN.host[0].eth[0].queue.pauseQueue queueLength:timeavg nan
attr interpolationmode sample-hold
attr title "queue length, timeavg"
statistic StarLAN.host[0].eth[0].queue.pauseQueue queueingTime:histogram
field count 0
field mean nan
field stddev nan
field min nan
field max nan
field sum 0
field sqrsum 0
attr interpolationmode none
attr title "queueing time, histogram"
bin	-inf	0
bin	-0.5	0
bin	-0.46666666666667	0
bin	-0.43333333333333	0
bin	-0.4	0
bin	-0.36666666666667	0
bin	-0.33333333333333	0
bin	-0.3	0
bin	-0.26666666666667	0
bin	-0.23333333333333	0
bin	-0.2	0
bin	-0.16666666666667	0
bin	-0.13333333333333	0
bin	-0.1	0
bin	-0.066666666666667	0
bin	-0.033333333333333	0
bin	0	0
bin	0.033333333333333	0
bin	0.066666666666667	0
bin	0.1	0
bin	0.13333333333333	0
bin	0.16666666666667	0
bin	0.2	0
bin	0.23333333333333	0
bin	0.26666666666667	0
bin	0.3	0
bin	0.33333333333333	0
bin	0.36666666666667	0
bin	0.4	0
bin	0.43333333333333	0
bin	0.46666666666667	0
bin	0.5	0
scalar StarLAN.host[0].eth[0].queue.pauseQueue dropPk:count 0
attr interpolationmode none
attr source dropPkByQueue
attr title "dropped packets, count"
scalar StarLAN.host[0].eth[0].queue.pauseQueue dropPk:sum(packetBytes) 0
attr interpolationmode none
attr source dropPkByQueue
attr title "dropped packets, sum(packetBytes)"
scalar StarLAN.host[0].eth[0].queue.pauseQueue rcvdPk:count 0
attr interpolationmode none
attr title "received packets, count"
scalar StarLAN.host[0].eth[0].queue.pauseQueue rcvdPk:sum(packetBytes) 0
attr interpolationmode none
attr title "received packets, sum(packetBytes)"
scalar StarLAN.host[0].eth[0].queue.dataQueue queueLength:max 1
attr interpolationmode sample-hold
attr title "queue length, max"
scalar StarLAN.host[0].eth[0].queue.dataQueue queueLength:timeavg 0.00030989575637837
attr interpolationmode sample-hold
attr title "queue length, timeavg"
statistic StarLAN.host[0].eth[0].queue.dataQueue queueingTime:histogram
field count 1059
field mean 4.3888898215297e-006
field stddev 3.5573217782618e-005
field min 0
field max 0.000586952464
field sum 0.004647834321
field sqrsum 1.359248977911e-006
attr interpolationmode none
attr title "queueing time, histogram"
bin	-inf	0
bin	-0.000149746558	0
bin	-0.00012978035026667	0
bin	-0.00010981414253333	0
bin	-8.98479348e-005	0
bin	-6.9881727066667e-005	0
bin	-4.9915519333333e-005	0
bin	-2.99493116e-005	0
bin	-9.9831038666667e-006	1037
bin	9.9831038666667e-006	0
bin	2.99493116e-005	2
bin	4.9915519333333e-005	1
bin	6.9881727066667e-005	1
bin	8.98479348e-005	2
bin	0.00010981414253333	1
bin	0.00012978035026667	2
bin	0.000149746558	1
bin	0.00016971276573333	0
bin	0.00018967897346667	2
bin	0.0002096451812	2
bin	0.00022961138893333	1
bin	0.00024957759666667	0
bin	0.0002695438044	0
bin	0.00028951001213333	3
bin	0.00030947621986667	2
bin	0.0003294424276	0
bin	0.00034940863533333	0
bin	0.00036937484306667	0
bin	0.0003893410508	0
bin	0.00040930725853333	0
bin	0.00042927346626667	1
bin	0.000449239674	1
scalar StarLAN.host[0].eth[0].queue.dataQueue dropPk:count 0
attr interpolationmode none
attr source dropPkByQueue
attr title "dropped packets, count"
scalar StarLAN.host[0].eth[0].queue.dataQueue dropPk:sum(packetBytes) 0
attr interpolationmode none
attr source dropPkByQueue
attr title "dropped packets, sum(packetBytes)"
scalar StarLAN.host[0].eth[0].queue.dataQueue rcvdPk:count 1059
attr interpolationmode none
attr title "received packets, count"
scalar StarLAN.host[0].eth[0].queue.dataQueue rcvdPk:sum(packetBytes) 537844
attr interpolationmode none
attr title "received packets, sum(packetBytes)"
scalar StarLAN.host[0].eth[0].mac "simulated time" 20
scalar StarLAN.host[0].eth[0].mac full-duplex 1
scalar StarLAN.host[0].eth[0].mac "frames/sec sent" 71
scalar StarLAN.host[0].eth[0].mac "frames/sec rcvd" 72.8
scalar StarLAN.host[0].eth[0].mac "bits/sec sent" 287594
scalar StarLAN.host[0].eth[0].mac "bits/sec rcvd" 288515.6
scalar StarLAN.host[0].eth[0].mac "rx channel idle (%)" 97.068252
scalar StarLAN.host[0].eth[0].mac "rx channel utilization (%)" 2.931748
scalar StarLAN.host[0].eth[0].mac rxPkFromHL:count 1059
attr interpolationmode none
attr source rxPkFromHL
attr title "packet bytes from higher layer, count"
scalar StarLAN.host[0].eth[0].mac rxPkFromHL:sum(packetBytes) 537844
attr interpolationmode none
attr source rxPkFromHL
attr title "packet bytes from higher layer, sum(packetBytes)"
scalar StarLAN.host[0].eth[0].mac rxPausePkUnits:count 0
attr interpolationmode none
attr title "pause units received, count"
scalar StarLAN.host[0].eth[0].mac rxPausePkUnits:sum 0
attr interpolationmode none
attr title "pause units received, sum"
scalar StarLAN.host[0].eth[0].mac txPausePkUnits:count 0
attr interpolationmode none
attr title "pause units sent, count"
scalar StarLAN.host[0].eth[0].mac txPausePkUnits:sum 0
attr interpolationmode none
attr title "pause units sent, sum"
scalar StarLAN.host[0].eth[0].mac txPk:count 1059
attr interpolationmode none
attr source txPk
attr title "packets transmitted, count"
scalar StarLAN.host[0].eth[0].mac txPk:sum(packetBytes) 537844
attr interpolationmode none
attr source txPk
attr title "packets transmitted, sum(packetBytes)"
scalar StarLAN.host[0].eth[0].mac droppedPkNotForUs:count 0
attr interpolationmode none
attr source dropPkNotForUs
attr title "packets dropped/not for us, count"
scalar StarLAN.host[0].eth[0].mac droppedPkNotForUs:sum(packetBytes) 0
attr interpolationmode none
attr source dropPkNotForUs
attr title "packets dropped/not for us, sum(packetBytes)"
scalar StarLAN.host[0].eth[0].mac droppedPkBitError:count 0
attr interpolationmode none
attr source dropPkBitError
attr title "packets dropped/bit error, count"
scalar StarLAN.host[0].eth[0].mac droppedPkBitError:sum(packetBytes) 0
attr interpolationmode none
attr source dropPkBitError
attr title "packets dropped/bit error, sum(packetBytes)"
scalar StarLAN.host[0].eth[0].mac droppedPkIfaceDown:count 0
attr interpolationmode none
attr source dropPkIfaceDown
attr title "packets dropped/interface down, count"
scalar StarLAN.host[0].eth[0].mac droppedPkIfaceDown:sum(packetBytes) 0
attr interpolationmode none
attr source dropPkIfaceDown
attr title "packets dropped/interface down, sum(packetBytes)"
scalar StarLAN.host[0].eth[0].mac rxPkOk:count 1059
attr interpolationmode none
attr source rxPkOk
attr title "packets received OK, count"
scalar StarLAN.host[0].eth[0].mac rxPkOk:sum(packetBytes) 537844
attr interpolationmode none
attr source rxPkOk
attr title "packets received OK, sum(packetBytes)"
scalar StarLAN.host[0].eth[0].mac passedUpPk:count 1059
attr interpolationmode none
attr source packetSentToUpper
attr title "packets passed to higher layer, count"
scalar StarLAN.host[0].eth[0].mac passedUpPk:sum(packetBytes) 537844
attr interpolationmode none
attr source packetSentToUpper
attr title "packets passed to higher layer, sum(packetBytes)"
scalar StarLAN.host[0].eth[0].encap pauseSent:count 0
attr title "pause sent, count"
scalar StarLAN.host[0].eth[0].encap pauseSent:sum 0
attr title "pause sent, sum"
scalar StarLAN.host[0].eth[0].encap decapPk:count 1059
attr interpolationmode none
attr source decapPk
attr title "packets decapsulated, count"
scalar StarLAN.host[0].eth[0].encap decapPk:sum(packetBytes) 518782
attr interpolationmode none
attr source decapPk
attr title "packets decapsulated, sum(packetBytes)"
scalar StarLAN.host[0].eth[0].encap encapPk:count 1059
attr interpolationmode none
attr source encapPk
attr title "packets encapsulated, count"
scalar StarLAN.host[0].eth[0].encap encapPk:sum(packetBytes) 518782
attr interpolationmode none
attr source encapPk
attr title "packets encapsulated, sum(packetBytes)"
scalar StarLAN.host[0].pingApp[0] "Pings sent" 388
scalar StarLAN.host[0].pingApp[0] "ping loss rate (%)" 0
scalar StarLAN.host[0].pingApp[0] "ping out-of-order rate (%)" 0
scalar StarLAN.host[0].pingApp[0] pingRxSeq:count 300
attr interpolationmode none
attr title "ping rx seq, count"
scalar StarLAN.host[0].pingApp[0] pingTxSeq:count 300
attr interpolationmode none
attr title "ping tx seq, count"
scalar StarLAN.host[0].pingApp[0] numOutOfOrderArrivals:last nan
attr interpolationmode none
attr title "ping out-of-order arrivals, last"
scalar StarLAN.host[0].pingApp[0] numLost:last nan
attr interpolationmode none
attr title "pings lost, last"
scalar StarLAN.host[0].pingApp[0] rtt:mean 0.00096524553628839
attr interpolationmode none
attr title "ping round-trip time, mean"
attr unit s
scalar StarLAN.host[0].pingApp[1] "Pings sent" 384
scalar StarLAN.host[0].pingApp[1] "ping loss rate (%)" 0
scalar StarLAN.host[0].pingApp[1] "ping out-of-order rate (%)" 0
scalar StarLAN.host[0].pingApp[1] pingRxSeq:count 288
attr interpolationmode none
attr title "ping rx seq, count"
scalar StarLAN.host[0].pingApp[1] pingTxSeq:count 288
attr interpolationmode none
attr title "ping tx seq, count"
scalar StarLAN.host[0].pingApp[1] numOutOfOrderArrivals:last nan
attr interpolationmode none
attr title "ping out-of-order arrivals, last"
scalar StarLAN.host[0].pingApp[1] numLost:last nan
attr interpolationmode none
attr title "pings lost, last"
scalar StarLAN.host[0].pingApp[1] rtt:mean 0.0025319883469112
attr interpolationmode none
attr title "ping round-trip time, mean"
attr unit s
scalar StarLAN.host[1].networkLayer.arp sentReply:count 0
attr title "ARP replies sent, count"
scalar StarLAN.host[1].networkLayer.arp sentReq:count 0
attr title "ARP request sent, count"
scalar StarLAN.host[1].networkLayer.arp failedARPResolution:count 0
attr title "ARP failed resolutions, count"
scalar StarLAN.host[1].networkLayer.arp completedARPResolution:count 0
attr title "ARP completed resolutions, count"
scalar StarLAN.host[1].networkLayer.arp initiatedARPResolution:count 0
attr title "ARP initiated resolutions, count"
scalar StarLAN.host[1].lo0.lo droppedPkBitError:count 0
attr interpolationmode none
attr source dropPkBitError
attr title "packets dropped/bit error, count"
scalar StarLAN.host[1].lo0.lo droppedPkBitError:sum(packetBytes) 0
attr interpolationmode none
attr source dropPkBitError
attr title "packets dropped/bit error, sum(packetBytes)"
scalar StarLAN.host[1].lo0.lo rcvdPkFromHL:count 120
attr interpolationmode none
attr source packetReceivedFromUpper
attr title "packets received from higher layer, count"
scalar StarLAN.host[1].lo0.lo rcvdPkFromHL:sum(packetBytes) 47976
attr interpolationmode none
attr source packetReceivedFromUpper
attr title "packets received from higher layer, sum(packetBytes)"
scalar StarLAN.host[1].lo0.lo passedUpPk:count 120
attr interpolationmode none
attr source packetSentToUpper
attr title "packets passed to higher layer, count"
scalar StarLAN.host[1].lo0.lo passedUpPk:sum(packetBytes) 47976
attr interpolationmode none
attr source packetSentToUpper
attr title "packets passed to higher layer, sum(packetBytes)"
scalar StarLAN.host[1].eth[0].queue.pauseQueue queueLength:max nan
attr interpolationmode sample-hold
attr title "queue length, max"
scalar StarLAN.host[1].eth[0].queue.pauseQueue queueLength:timeavg nan
attr interpolationmode sample-hold
attr title "queue length, timeavg"
statistic StarLAN.host[1].eth[0].queue.pauseQueue queueingTime:histogram
field count 0
field mean nan
field stddev nan
field min nan
field max nan
field sum 0
field sqrsum 0
attr interpolationmode none
attr title "queueing time, histogram"
bin	-inf	0
bin	-0.5	0
bin	-0.46666666666667	0
bin	-0.43333333333333	0
bin	-0.4	0
bin	-0.36666666666667	0
bin	-0.33333333333333	0
bin	-0.3	0
bin	-0.26666666666667	0
bin	-0.23333333333333	0
bin	-0.2	0
bin	-0.16666666666667	0
bin	-0.13333333333333	0
bin	-0.1	0
bin	-0.066666666666667	0
bin	-0.033333333333333	0
bin	0	0
bin	0.033333333333333	0
bin	0.066666666666667	0
bin	0.1	0
bin	0.13333333333333	0
bin	0.16666666666667	0
bin	0.2	0
bin	0.23333333333333	0
bin	0.26666666666667	0
bin	0.3	0
bin	0.33333333333333	0
bin	0.36666666666667	0
bin	0.4	0
bin	0.43333333333333	0
bin	0.46666666666667	0
bin	0.5	0
scalar StarLAN.host[1].eth[0].queue.pauseQueue dropPk:count 0
attr interpolationmode none
attr source dropPkByQueue
attr title "dropped packets, count"
scalar StarLAN.host[1].eth[0].queue.pauseQueue dropPk:sum(packetBytes) 0
attr interpolationmode none
attr source dropPkByQueue
attr title "dropped packets, sum(packetBytes)"
scalar StarLAN.host[1].eth[0].queue.pauseQueue rcvdPk:count 0
attr interpolationmode none
attr title "received packets, count"
scalar StarLAN.host[1].eth[0].queue.pauseQueue rcvdPk:sum(packetBytes) 0
attr interpolationmode none
attr title "received packets, sum(packetBytes)"
scalar StarLAN.host[1].eth[0].queue.dataQueue queueLength:max 2
attr interpolationmode sample-hold
attr title "queue length, max"
scalar StarLAN.host[1].eth[0].queue.dataQueue queueLength:timeavg 0.00052436150805918
attr interpolationmode sample-hold
attr title "queue length, timeavg"
statistic StarLAN.host[1].eth[0].queue.dataQueue queueingTime:histogram
field count 1070
field mean 7.3502429401869e-006
field stddev 5.103172331203e-005
field min 0
field max 0.0006936
field sum 0.007864759946
field sqrsum 2.8417370185744e-006
attr interpolationmode none
attr title "queueing time, histogram"
bin	-inf	0
bin	-0.000205588555	0
bin	-0.00017817674766667	0
bin	-0.00015076494033333	0
bin	-0.000123353133	0
bin	-9.5941325666667e-005	0
bin	-6.8529518333333e-005	0
bin	-4.1117711e-005	0
bin	-1.3705903666667e-005	1039
bin	1.3705903666667e-005	2
bin	4.1117711e-005	3
bin	6.8529518333333e-005	1
bin	9.5941325666667e-005	1
bin	0.000123353133	1
bin	0.00015076494033333	2
bin	0.00017817674766667	3
bin	0.000205588555	5
bin	0.00023300036233333	2
bin	0.00026041216966667	0
bin	0.000287823977	1
bin	0.00031523578433333	2
bin	0.00034264759166667	0
bin	0.000370059399	1
bin	0.00039747120633333	2
bin	0.00042488301366667	1
bin	0.000452294821	1
bin	0.00047970662833333	1
bin	0.00050711843566667	0
bin	0.000534530243	0
bin	0.00056194205033333	1
bin	0.00058935385766667	0
bin	0.000616765665	1
scalar StarLAN.host[1].eth[0].queue.dataQueue dropPk:count 0
attr interpolationmode none
attr source dropPkByQueue
attr title "dropped packets, count"
scalar StarLAN.host[1].eth[0].queue.dataQueue dropPk:sum(packetBytes) 0
attr interpolationmode none
attr source dropPkByQueue
attr title "dropped packets, sum(packetBytes)"
scalar StarLAN.host[1].eth[0].queue.dataQueue rcvdPk:count 1070
attr interpolationmode none
attr title "received packets, count"
scalar StarLAN.host[1].eth[0].queue.dataQueue rcvdPk:sum(packetBytes) 500034
attr interpolationmode none
attr title "received packets, sum(packetBytes)"
scalar StarLAN.host[1].eth[0].mac "simulated time" 20
scalar StarLAN.host[1].eth[0].mac full-duplex 1
scalar StarLAN.host[1].eth[0].mac "frames/sec sent" 70.9
scalar StarLAN.host[1].eth[0].mac "frames/sec rcvd" 72.7
scalar StarLAN.host[1].eth[0].mac "bits/sec sent" 263535.2
scalar StarLAN.host[1].eth[0].mac "bits/sec rcvd" 264456.8
scalar StarLAN.host[1].eth[0].mac "rx channel idle (%)" 97.308904
scalar StarLAN.host[1].eth[0].mac "rx channel utilization (%)" 2.691096
scalar StarLAN.host[1].eth[0].mac rxPkFromHL:count 1070
attr interpolationmode none
attr source rxPkFromHL
attr title "packet bytes from higher layer, count"
scalar StarLAN.host[1].eth[0].mac rxPkFromHL:sum(packetBytes) 500034
attr interpolationmode none
attr source rxPkFromHL
attr title "packet bytes from higher layer, sum(packetBytes)"
scalar StarLAN.host[1].eth[0].mac rxPausePkUnits:count 0
attr interpolationmode none
attr title "pause units received, count"
scalar StarLAN.host[1].eth[0].mac rxPausePkUnits:sum 0
attr interpolationmode none
attr title "pause units received, sum"
scalar StarLAN.host[1].eth[0].mac txPausePkUnits:count 0
attr interpolationmode none
attr title "pause units sent, count"
scalar StarLAN.host[1].eth[0].mac txPausePkUnits:sum 0
attr interpolationmode none
attr title "pause units sent, sum"
scalar StarLAN.host[1].eth[0].mac txPk:count 1070
attr interpolationmode none
attr source txPk
attr title "packets transmitted, count"
scalar StarLAN.host[1].eth[0].mac txPk:sum(packetBytes) 500034
attr interpolationmode none
attr source txPk
attr title "packets transmitted, sum(packetBytes)"
scalar StarLAN.host[1].eth[0].mac droppedPkNotForUs:count 0
attr interpolationmode none
attr source dropPkNotForUs
attr title "packets dropped/not for us, count"
scalar StarLAN.host[1].eth[0].mac droppedPkNotForUs:sum(packetBytes) 0
attr interpolationmode none
attr source dropPkNotForUs
attr title "packets dropped/not for us, sum(packetBytes)"
scalar StarLAN.host[1].eth[0].mac droppedPkBitError:count 0
attr interpolationmode none
attr source dropPkBitError
attr title "packets dropped/bit error, count"
scalar StarLAN.host[1].eth[0].mac droppedPkBitError:sum(packetBytes) 0
attr interpolationmode none
attr source dropPkBitError
attr title "packets dropped/bit error, sum(packetBytes)"
scalar StarLAN.host[1].eth[0].mac droppedPkIfaceDown:count 0
attr interpolationmode none
attr source dropPkIfaceDown
attr title "packets dropped/interface down, count"
scalar StarLAN.host[1].eth[0].mac droppedPkIfaceDown:sum(packetBytes) 0
attr interpolationmode none
attr source dropPkIfaceDown
attr title "packets dropped/interface down, sum(packetBytes)"
scalar StarLAN.host[1].eth[0].mac rxPkOk:count 1070
attr interpolationmode none
attr source rxPkOk
attr title "packets received OK, count"
scalar StarLAN.host[1].eth[0].mac rxPkOk:sum(packetBytes) 500034
attr interpolationmode none
attr source rxPkOk
attr title "packets received OK, sum(packetBytes)"
scalar StarLAN.host[1].eth[0].mac passedUpPk:count 1070
attr interpolationmode none
attr source packetSentToUpper
attr title "packets passed to higher layer, count"
scalar StarLAN.host[1].eth[0].mac passedUpPk:sum(packetBytes) 500034
attr interpolationmode none
attr source packetSentToUpper
attr title "packets passed to higher layer, sum(packetBytes)"
scalar StarLAN.host[1].eth[0].encap pauseSent:count 0
attr title "pause sent, count"
scalar StarLAN.host[1].eth[0].encap pauseSent:sum 0
attr title "pause sent, sum"
scalar StarLAN.host[1].eth[0].encap decapPk:count 1070
attr interpolationmode none
attr source decapPk
attr title "packets decapsulated, count"
scalar StarLAN.host[1].eth[0].encap decapPk:sum(packetBytes) 480774
attr interpolationmode none
attr source decapPk
attr title "packets decapsulated, sum(packetBytes)"
scalar StarLAN.host[1].eth[0].encap encapPk:count 1070
attr interpolationmode none
attr source encapPk
attr title "packets encapsulated, count"
scalar StarLAN.host[1].eth[0].encap encapPk:sum(packetBytes) 480774
attr interpolationmode none
attr source encapPk
attr title "packets encapsulated, sum(packetBytes)"
scalar StarLAN.host[1].pingApp[0] "Pings sent" 406
scalar StarLAN.host[1].pingApp[0] "ping loss rate (%)" 0
scalar StarLAN.host[1].pingApp[0] "ping out-of-order rate (%)" 0
scalar StarLAN.host[1].pingApp[0] pingRxSeq:count 307
attr interpolationmode none
attr title "ping rx seq, count"
scalar StarLAN.host[1].pingApp[0] pingTxSeq:count 307
attr interpolationmode none
attr title "ping tx seq, count"
scalar StarLAN.host[1].pingApp[0] numOutOfOrderArrivals:last nan
attr interpolationmode none
attr title "ping out-of-order arrivals, last"
scalar StarLAN.host[1].pingApp[0] numLost:last nan
attr interpolationmode none
attr title "pings lost, last"
scalar StarLAN.host[1].pingApp[0] rtt:mean 0.0012323815783418
attr interpolationmode none
attr title "ping round-trip time, mean"
attr unit s
scalar StarLAN.host[1].pingApp[1] "Pings sent" 380
scalar StarLAN.host[1].pingApp[1] "ping loss rate (%)" 0
scalar StarLAN.host[1].pingApp[1] "ping out-of-order rate (%)" 0
scalar StarLAN.host[1].pingApp[1] pingRxSeq:count 288
attr interpolationmode none
attr title "ping rx seq, count"
scalar StarLAN.host[1].pingApp[1] pingTxSeq:count 288
attr interpolationmode none
attr title "ping tx seq, count"
scalar StarLAN.host[1].pingApp[1] numOutOfOrderArrivals:last nan
attr interpolationmode none
attr title "ping out-of-order arrivals, last"
scalar StarLAN.host[1].pingApp[1] numLost:last nan
attr interpolationmode none
attr title "pings lost, last"
scalar StarLAN.host[1].pingApp[1] rtt:mean 0.0015644464191039
attr interpolationmode none
attr title "ping round-trip time, mean"
attr unit s
scalar StarLAN.host[2].networkLayer.arp sentReply:count 0
attr title "ARP replies sent, count"
scalar StarLAN.host[2].networkLayer.arp sentReq:count 0
attr title "ARP request sent, count"
scalar StarLAN.host[2].networkLayer.arp failedARPResolution:count 0
attr title "ARP failed resolutions, count"
scalar StarLAN.host[2].networkLayer.arp completedARPResolution:count 0
attr title "ARP completed resolutions, count"
scalar StarLAN.host[2].networkLayer.arp initiatedARPResolution:count 0
attr title "ARP initiated resolutions, count"
scalar StarLAN.host[2].lo0.lo droppedPkBitError:count 0
attr interpolationmode none
attr source dropPkBitError
attr title "packets dropped/bit error, count"
scalar StarLAN.host[2].lo0.lo droppedPkBitError:sum(packetBytes) 0
attr interpolationmode none
attr source dropPkBitError
attr title "packets dropped/bit error, sum(packetBytes)"
scalar StarLAN.host[2].lo0.lo rcvdPkFromHL:count 132
attr interpolationmode none
attr source packetReceivedFromUpper
attr title "packets received from higher layer, count"
scalar StarLAN.host[2].lo0.lo rcvdPkFromHL:sum(packetBytes) 75896
attr interpolationmode none
attr source packetReceivedFromUpper
attr title "packets received from higher layer, sum(packetBytes)"
scalar StarLAN.host[2].lo0.lo passedUpPk:count 132
attr interpolationmode none
attr source packetSentToUpper
attr title "packets passed to higher layer, count"
scalar StarLAN.host[2].lo0.lo passedUpPk:sum(packetBytes) 75896
attr interpolationmode none
attr source packetSentToUpper
attr title "packets passed to higher layer, sum(packetBytes)"
scalar StarLAN.host[2].eth[0].queue.pauseQueue queueLength:max nan
attr interpolationmode sample-hold
attr title "queue length, max"
scalar StarLAN.host[2].eth[0].queue.pauseQueue queueLength:timeavg nan
attr interpolationmode sample-hold
attr title "queue length, timeavg"
statistic StarLAN.host[2].eth[0].queue.pauseQueue queueingTime:histogram
field count 0
field mean nan
field stddev nan
field min nan
field max nan
field sum 0
field sqrsum 0
attr interpolationmode none
attr title "queueing time, histogram"
bin	-inf	0
bin	-0.5	0
bin	-0.46666666666667	0
bin	-0.43333333333333	0
bin	-0.4	0
bin	-0.36666666666667	0
bin	-0.33333333333333	0
bin	-0.3	0
bin	-0.26666666666667	0
bin	-0.23333333333333	0
bin	-0.2	0
bin	-0.16666666666667	0
bin	-0.13333333333333	0
bin	-0.1	0
bin	-0.066666666666667	0
bin	-0.033333333333333	0
bin	0	0
bin	0.033333333333333	0
bin	0.066666666666667	0
bin	0.1	0
bin	0.13333333333333	0
bin	0.16666666666667	0
bin	0.2	0
bin	0.23333333333333	0
bin	0.26666666666667	0
bin	0.3	0
bin	0.33333333333333	0
bin	0.36666666666667	0
bin	0.4	0
bin	0.43333333333333	0
bin	0.46666666666667	0
bin	0.5	0
scalar StarLAN.host[2].eth[0].queue.pauseQueue dropPk:count 0
attr interpolationmode none
attr source dropPkByQueue
attr title "dropped packets, count"
scalar StarLAN.host[2].eth[0].queue.pauseQueue dropPk:sum(packetBytes) 0
attr interpolationmode none
attr source dropPkByQueue
attr title "dropped packets, sum(packetBytes)"
scalar StarLAN.host[2].eth[0].queue.pauseQueue rcvdPk:count 0
attr interpolationmode none
attr title "received packets, count"
scalar StarLAN.host[2].eth[0].queue.pauseQueue rcvdPk:sum(packetBytes) 0
attr interpolationmode none
attr title "received packets, sum(packetBytes)"
scalar StarLAN.host[2].eth[0].queue.dataQueue queueLength:max 1
attr interpolationmode sample-hold
attr title "queue length, max"
scalar StarLAN.host[2].eth[0].queue.dataQueue queueLength:timeavg 0.00035188845300009
attr interpolationmode sample-hold
attr title "queue length, timeavg"
statistic StarLAN.host[2].eth[0].queue.dataQueue queueingTime:histogram
field count 1091
field mean 4.8320656535289e-006
field stddev 4.0450046341092e-005
field min 0
field max 0.000475343964
field sum 0.005271783628
field sqrsum 1.8089384160078e-006
attr interpolationmode none
attr title "queueing time, histogram"
bin	-inf	0
bin	-8.96e-005	0
bin	-7.7653333333333e-005	0
bin	-6.5706666666667e-005	0
bin	-5.376e-005	0
bin	-4.1813333333333e-005	0
bin	-2.9866666666667e-005	0
bin	-1.792e-005	0
bin	-5.9733333333333e-006	1069
bin	5.9733333333333e-006	1
bin	1.792e-005	1
bin	2.9866666666667e-005	2
bin	4.1813333333333e-005	0
bin	5.376e-005	0
bin	6.5706666666667e-005	0
bin	7.7653333333333e-005	1
bin	8.96e-005	0
bin	0.00010154666666667	2
bin	0.00011349333333333	1
bin	0.00012544	0
bin	0.00013738666666667	0
bin	0.00014933333333333	0
bin	0.00016128	0
bin	0.00017322666666667	1
bin	0.00018517333333333	1
bin	0.00019712	0
bin	0.00020906666666667	0
bin	0.00022101333333333	0
bin	0.00023296	2
bin	0.00024490666666667	1
bin	0.00025685333333333	0
bin	0.0002688	9
scalar StarLAN.host[2].eth[0].queue.dataQueue dropPk:count 0
attr interpolationmode none
attr source dropPkByQueue
attr title "dropped packets, count"
scalar StarLAN.host[2].eth[0].queue.dataQueue dropPk:sum(packetBytes) 0
attr interpolationmode none
attr source dropPkByQueue
attr title "dropped packets, sum(packetBytes)"
scalar StarLAN.host[2].eth[0].queue.dataQueue rcvdPk:count 1091
attr interpolationmode none
attr title "received packets, count"
scalar StarLAN.host[2].eth[0].queue.dataQueue rcvdPk:sum(packetBytes) 588459
attr interpolationmode none
attr title "received packets, sum(packetBytes)"
scalar StarLAN.host[2].eth[0].mac "simulated time" 20
scalar StarLAN.host[2].eth[0].mac full-duplex 1
scalar StarLAN.host[2].eth[0].mac "frames/sec sent" 72.65
scalar StarLAN.host[2].eth[0].mac "frames/sec rcvd" 74.45
scalar StarLAN.host[2].eth[0].mac "bits/sec sent" 312542
scalar StarLAN.host[2].eth[0].mac "bits/sec rcvd" 313463.6
scalar StarLAN.host[2].eth[0].mac "rx channel idle (%)" 96.817716
scalar StarLAN.host[2].eth[0].mac "rx channel utilization (%)" 3.182284
scalar StarLAN.host[2].eth[0].mac rxPkFromHL:count 1091
attr interpolationmode none
attr source rxPkFromHL
attr title "packet bytes from higher layer, count"
scalar StarLAN.host[2].eth[0].mac rxPkFromHL:sum(packetBytes) 588459
attr interpolationmode none
attr source rxPkFromHL
attr title "packet bytes from higher layer, sum(packetBytes)"
scalar StarLAN.host[2].eth[0].mac rxPausePkUnits:count 0
attr interpolationmode none
attr title "pause units received, count"
scalar StarLAN.host[2].eth[0].mac rxPausePkUnits:sum 0
attr interpolationmode none
attr title "pause units received, sum"
scalar StarLAN.host[2].eth[0].mac txPausePkUnits:count 0
attr interpolationmode none
attr title "pause units sent, count"
scalar StarLAN.host[2].eth[0].mac txPausePkUnits:sum 0
attr interpolationmode none
attr title "pause units sent, sum"
scalar StarLAN.host[2].eth[0].mac txPk:count 1091
attr interpolationmode none
attr source txPk
attr title "packets transmitted, count"
scalar StarLAN.host[2].eth[0].mac txPk:sum(packetBytes) 588459
attr interpolationmode none
attr source txPk
attr title "packets transmitted, sum(packetBytes)"
scalar StarLAN.host[2].eth[0].mac droppedPkNotForUs:count 0
attr interpolationmode none
attr source dropPkNotForUs
attr title "packets dropped/not for us, count"
scalar StarLAN.host[2].eth[0].mac droppedPkNotForUs:sum(packetBytes) 0
attr interpolationmode none
attr source dropPkNotForUs
attr title "packets dropped/not for us, sum(packetBytes)"
scalar StarLAN.host[2].eth[0].mac droppedPkBitError:count 0
attr interpolationmode none
attr source dropPkBitError
attr title "packets dropped/bit error, count"
scalar StarLAN.host[2].eth[0].mac droppedPkBitError:sum(packetBytes) 0
attr interpolationmode none
attr source dropPkBitError
attr title "packets dropped/bit error, sum(packetBytes)"
scalar StarLAN.host[2].eth[0].mac droppedPkIfaceDown:count 0
attr interpolationmode none
attr source dropPkIfaceDown
attr title "packets dropped/interface down, count"
scalar StarLAN.host[2].eth[0].mac droppedPkIfaceDown:sum(packetBytes) 0
attr interpolationmode none
attr source dropPkIfaceDown
attr title "packets dropped/interface down, sum(packetBytes)"
scalar StarLAN.host[2].eth[0].mac rxPkOk:count 1091
attr interpolationmode none
attr source rxPkOk
attr title "packets received OK, count"
scalar StarLAN.host[2].eth[0].mac rxPkOk:sum(packetBytes) 588459
attr interpolationmode none
attr source rxPkOk
attr title "packets received OK, sum(packetBytes)"
scalar StarLAN.host[2].eth[0].mac passedUpPk:count 1091
attr interpolationmode none
attr source packetSentToUpper
attr title "packets passed to higher layer, count"
scalar StarLAN.host[2].eth[0].mac passedUpPk:sum(packetBytes) 588459
attr interpolationmode none
attr source packetSentToUpper
attr title "packets passed to higher layer, sum(packetBytes)"
scalar StarLAN.host[2].eth[0].encap pauseSent:count 0
attr title "pause sent, count"
scalar StarLAN.host[2].eth[0].encap pauseSent:sum 0
attr title "pause sent, sum"
scalar StarLAN.host[2].eth[0].encap decapPk:count 1091
attr interpolationmode none
attr source decapPk
attr title "packets decapsulated, count"
scalar StarLAN.host[2].eth[0].encap decapPk:sum(packetBytes) 568821
attr interpolationmode none
attr source decapPk
attr title "packets decapsulated, sum(packetBytes)"
scalar StarLAN.host[2].eth[0].encap encapPk:count 1091
attr interpolationmode none
attr source encapPk
attr title "packets encapsulated, count"
scalar StarLAN.host[2].eth[0].encap encapPk:sum(packetBytes) 568821
attr interpolationmode none
attr source encapPk
attr title "packets encapsulated, sum(packetBytes)"
scalar StarLAN.host[2].pingApp[0] "Pings sent" 386
scalar StarLAN.host[2].pingApp[0] "ping loss rate (%)" 0
scalar StarLAN.host[2].pingApp[0] "ping out-of-order rate (%)" 0
scalar StarLAN.host[2].pingApp[0] pingRxSeq:count 288
attr interpolationmode none
attr title "ping rx seq, count"
scalar StarLAN.host[2].pingApp[0] pingTxSeq:count 288
attr interpolationmode none
attr title "ping tx seq, count"
scalar StarLAN.host[2].pingApp[0] numOutOfOrderArrivals:last nan
attr interpolationmode none
attr title "ping out-of-order arrivals, last"
scalar StarLAN.host[2].pingApp[0] numLost:last nan
attr interpolationmode none
attr title "pings lost, last"
scalar StarLAN.host[2].pingApp[0] rtt:mean 0.001542505937748
attr interpolationmode none
attr title "ping round-trip time, mean"
attr unit s
scalar StarLAN.host[2].pingApp[1] "Pings sent" 400
scalar StarLAN.host[2].pingApp[1] "ping loss rate (%)" 0
scalar StarLAN.host[2].pingApp[1] "ping out-of-order rate (%)" 0
scalar StarLAN.host[2].pingApp[1] pingRxSeq:count 297
attr interpolationmode none
attr title "ping rx seq, count"
scalar StarLAN.host[2].pingApp[1] pingTxSeq:count 297
attr interpolationmode none
attr title "ping tx seq, count"
scalar StarLAN.host[2].pingApp[1] numOutOfOrderArrivals:last nan
attr interpolationmode none
attr title "ping out-of-order arrivals, last"
scalar StarLAN.host[2].pingApp[1] numLost:last nan
attr interpolationmode none
attr title "pings lost, last"
scalar StarLAN.host[2].pingApp[1] rtt:mean 0.002384643538049
attr interpolationmode none
attr title "ping round-trip time, mean"
attr unit s
scalar StarLAN.host[3].networkLayer.arp sentReply:count 0
attr title "ARP replies sent, count"
scalar StarLAN.host[3].networkLayer.arp sentReq:count 0
attr title "ARP request sent, count"
scalar StarLAN.host[3].networkLayer.arp failedARPResolution:count 0
attr title "ARP failed resolutions, count"
scalar StarLAN.host[3].networkLayer.arp completedARPResolution:count 0
attr title "ARP completed resolutions, count"
scalar StarLAN.host[3].networkLayer.arp initiatedARPResolution:count 0
attr title "ARP initiated resolutions, count"
scalar StarLAN.host[3].lo0.lo droppedPkBitError:count 0
attr interpolationmode none
attr source dropPkBitError
attr title "packets dropped/bit error, count"
scalar StarLAN.host[3].lo0.lo droppedPkBitError:sum(packetBytes) 0
attr interpolationmode none
attr source dropPkBitError
attr title "packets dropped/bit error, sum(packetBytes)"
scalar StarLAN.host[3].lo0.lo rcvdPkFromHL:count 134
attr interpolationmode none
attr source packetReceivedFromUpper
attr title "packets received from higher layer, count"
scalar StarLAN.host[3].lo0.lo rcvdPkFromHL:sum(packetBytes) 53744
attr interpolationmode none
attr source packetReceivedFromUpper
attr title "packets received from higher layer, sum(packetBytes)"
scalar StarLAN.host[3].lo0.lo passedUpPk:count 134
attr interpolationmode none
attr source packetSentToUpper
attr title "packets passed to higher layer, count"
scalar StarLAN.host[3].lo0.lo passedUpPk:sum(packetBytes) 53744
attr interpolationmode none
attr source packetSentToUpper
attr title "packets passed to higher layer, sum(packetBytes)"
scalar StarLAN.host[3].eth[0].queue.pauseQueue queueLength:max nan
attr interpolationmode sample-hold
attr title "queue length, max"
scalar StarLAN.host[3].eth[0].queue.pauseQueue queueLength:timeavg nan
attr interpolationmode sample-hold
attr title "queue length, timeavg"
statistic StarLAN.host[3].eth[0].queue.pauseQueue queueingTime:histogram
field count 0
field mean nan
field stddev nan
field min nan
field max nan
field sum 0
field sqrsum 0
attr interpolationmode none
attr title "queueing time, histogram"
bin	-inf	0
bin	-0.5	0
bin	-0.46666666666667	0
bin	-0.43333333333333	0
bin	-0.4	0
bin	-0.36666666666667	0
bin	-0.33333333333333	0
bin	-0.3	0
bin	-0.26666666666667	0
bin	-0.23333333333333	0
bin	-0.2	0
bin	-0.16666666666667	0
bin	-0.13333333333333	0
bin	-0.1	0
bin	-0.066666666666667	0
bin	-0.033333333333333	0
bin	0	0
bin	0.033333333333333	0
bin	0.066666666666667	0
bin	0.1	0
bin	0.13333333333333	0
bin	0.16666666666667	0
bin	0.2	0
bin	0.23333333333333	0
bin	0.26666666666667	0
bin	0.3	0
bin	0.33333333333333	0
bin	0.36666666666667	0
bin	0.4	0
bin	0.43333333333333	0
bin	0.46666666666667	0
bin	0.5	0
scalar StarLAN.host[3].eth[0].queue.pauseQueue dropPk:count 0
attr interpolationmode none
attr source dropPkByQueue
attr title "dropped packets, count"
scalar StarLAN.host[3].eth[0].queue.pauseQueue dropPk:sum(packetBytes) 0
attr interpolationmode none
attr source dropPkByQueue
attr title "dropped packets, sum(packetBytes)"
scalar StarLAN.host[3].eth[0].queue.pauseQueue rcvdPk:count 0
attr interpolationmode none
attr title "received packets, count"
scalar StarLAN.host[3].eth[0].queue.pauseQueue rcvdPk:sum(packetBytes) 0
attr interpolationmode none
attr title "received packets, sum(packetBytes)"
scalar StarLAN.host[3].eth[0].queue.dataQueue queueLength:max 1
attr interpolationmode sample-hold
attr title "queue length, max"
scalar StarLAN.host[3].eth[0].queue.dataQueue queueLength:timeavg 0.00030092741920429
attr interpolationmode sample-hold
attr title "queue length, timeavg"
statistic StarLAN.host[3].eth[0].queue.dataQueue queueingTime:histogram
field count 1115
field mean 4.0464123946188e-006
field stddev 3.3143401873406e-005
field min 0
field max 0.000415607368
field sum 0.00451174982
field sqrsum 1.2419687881378e-006
attr interpolationmode none
attr title "queueing time, histogram"
bin	-inf	0
bin	-1.060146e-006	0
bin	-9.187932e-007	0
bin	-7.774404e-007	0
bin	-6.360876e-007	0
bin	-4.947348e-007	0
bin	-3.53382e-007	0
bin	-2.120292e-007	0
bin	-7.06764e-008	1091
bin	7.06764e-008	0
bin	2.120292e-007	0
bin	3.53382e-007	0
bin	4.947348e-007	0
bin	6.360876e-007	0
bin	7.774404e-007	0
bin	9.187932e-007	0
bin	1.060146e-006	0
bin	1.2014988e-006	0
bin	1.3428516e-006	0
bin	1.4842044e-006	0
bin	1.6255572e-006	0
bin	1.76691e-006	0
bin	1.9082628e-006	0
bin	2.0496156e-006	1
bin	2.1909684e-006	0
bin	2.3323212e-006	0
bin	2.473674e-006	0
bin	2.6150268e-006	0
bin	2.7563796e-006	0
bin	2.8977324e-006	0
bin	3.0390852e-006	0
bin	3.180438e-006	23
scalar StarLAN.host[3].eth[0].queue.dataQueue dropPk:count 0
attr interpolationmode none
attr source dropPkByQueue
attr title "dropped packets, count"
scalar StarLAN.host[3].eth[0].queue.dataQueue dropPk:sum(packetBytes) 0
attr interpolationmode none
attr source dropPkByQueue
attr title "dropped packets, sum(packetBytes)"
scalar StarLAN.host[3].eth[0].queue.dataQueue rcvdPk:count 1115
attr interpolationmode none
attr title "received packets, count"
scalar StarLAN.host[3].eth[0].queue.dataQueue rcvdPk:sum(packetBytes) 519787
attr interpolationmode none
attr title "received packets, sum(packetBytes)"
scalar StarLAN.host[3].eth[0].mac "simulated time" 20
scalar StarLAN.host[3].eth[0].mac full-duplex 1
scalar StarLAN.host[3].eth[0].mac "frames/sec sent" 71.6
scalar StarLAN.host[3].eth[0].mac "frames/sec rcvd" 73.4
scalar StarLAN.host[3].eth[0].mac "bits/sec sent" 265724.4
scalar StarLAN.host[3].eth[0].mac "bits/sec rcvd" 266646
scalar StarLAN.host[3].eth[0].mac "rx channel idle (%)" 97.286564
scalar StarLAN.host[3].eth[0].mac "rx channel utilization (%)" 2.713436
scalar StarLAN.host[3].eth[0].mac rxPkFromHL:count 1115
attr interpolationmode none
attr source rxPkFromHL
attr title "packet bytes from higher layer, count"
scalar StarLAN.host[3].eth[0].mac rxPkFromHL:sum(packetBytes) 519787
attr interpolationmode none
attr source rxPkFromHL
attr title "packet bytes from higher layer, sum(packetBytes)"
scalar StarLAN.host[3].eth[0].mac rxPausePkUnits:count 0
attr interpolationmode none
attr title "pause units received, count"
scalar StarLAN.host[3].eth[0].mac rxPausePkUnits:sum 0
attr interpolationmode none
attr title "pause units received, sum"
scalar StarLAN.host[3].eth[0].mac txPausePkUnits:count 0
attr interpolationmode none
attr title "pause units sent, count"
scalar StarLAN.host[3].eth[0].mac txPausePkUnits:sum 0
attr interpolationmode none
attr title "pause units sent, sum"
scalar StarLAN.host[3].eth[0].mac txPk:count 1115
attr interpolationmode none
attr source txPk
attr title "packets transmitted, count"
scalar StarLAN.host[3].eth[0].mac txPk:sum(packetBytes) 519787
attr interpolationmode none
attr source txPk
attr title "packets transmitted, sum(packetBytes)"
scalar StarLAN.host[3].eth[0].mac droppedPkNotForUs:count 0
attr interpolationmode none
attr source dropPkNotForUs
attr title "packets dropped/not for us, count"
scalar StarLAN.host[3].eth[0].mac droppedPkNotForUs:sum(packetBytes) 0
attr interpolationmode none
attr source dropPkNotForUs
attr title "packets dropped/not for us, sum(packetBytes)"
scalar StarLAN.host[3].eth[0].mac droppedPkBitError:count 0
attr interpolationmode none
attr source dropPkBitError
attr title "packets dropped/bit error, count"
scalar StarLAN.host[3].eth[0].mac droppedPkBitError:sum(packetBytes) 0
attr interpolationmode none
attr source dropPkBitError
attr title "packets dropped/bit error, sum(packetBytes)"
scalar StarLAN.host[3].eth[0].mac droppedPkIfaceDown:count 0
attr interpolationmode none
attr source dropPkIfaceDown
attr title "packets dropped/interface down, count"
scalar StarLAN.host[3].eth[0].mac droppedPkIfaceDown:sum(packetBytes) 0
attr interpolationmode none
attr source dropPkIfaceDown
attr title "packets dropped/interface down, sum(packetBytes)"
scalar StarLAN.host[3].eth[0].mac rxPkOk:count 1115
attr interpolationmode none
attr source rxPkOk
attr title "packets received OK, count"
scalar StarLAN.host[3].eth[0].mac rxPkOk:sum(packetBytes) 519787
attr interpolationmode none
attr source rxPkOk
attr title "packets received OK, sum(packetBytes)"
scalar StarLAN.host[3].eth[0].mac passedUpPk:count 1115
attr interpolationmode none
attr source packetSentToUpper
attr title "packets passed to higher layer, count"
scalar StarLAN.host[3].eth[0].mac passedUpPk:sum(packetBytes) 519787
attr interpolationmode none
attr source packetSentToUpper
attr title "packets passed to higher layer, sum(packetBytes)"
scalar StarLAN.host[3].eth[0].encap pauseSent:count 0
attr title "pause sent, count"
scalar StarLAN.host[3].eth[0].encap pauseSent:sum 0
attr title "pause sent, sum"
scalar StarLAN.host[3].eth[0].encap decapPk:count 1115
attr interpolationmode none
attr source decapPk
attr title "packets decapsulated, count"
scalar StarLAN.host[3].eth[0].encap decapPk:sum(packetBytes) 499717
attr interpolationmode none
attr source decapPk
attr title "packets decapsulated, sum(packetBytes)"
scalar StarLAN.host[3].eth[0].encap encapPk:count 1115
attr interpolationmode none
attr source encapPk
attr title "packets encapsulated, count"
scalar StarLAN.host[3].eth[0].encap encapPk:sum(packetBytes) 499717
attr interpolationmode none
attr source encapPk
attr title "packets encapsulated, sum(packetBytes)"
scalar StarLAN.host[3].pingApp[0] "Pings sent" 385
scalar StarLAN.host[3].pingApp[0] "ping loss rate (%)" 0
scalar StarLAN.host[3].pingApp[0] "ping out-of-order rate (%)" 0
scalar StarLAN.host[3].pingApp[0] pingRxSeq:count 292
attr interpolationmode none
attr title "ping rx seq, count"
scalar StarLAN.host[3].pingApp[0] pingTxSeq:count 292
attr interpolationmode none
attr title "ping tx seq, count"
scalar StarLAN.host[3].pingApp[0] numOutOfOrderArrivals:last nan
attr interpolationmode none
attr title "ping out-of-order arrivals, last"
scalar StarLAN.host[3].pingApp[0] numLost:last nan
attr interpolationmode none
attr title "pings lost, last"
scalar StarLAN.host[3].pingApp[0] rtt:mean 0.0010115916054318
attr interpolationmode none
attr title "ping round-trip time, mean"
attr unit s
scalar StarLAN.host[3].pingApp[1] "Pings sent" 415
scalar StarLAN.host[3].pingApp[1] "ping loss rate (%)" 0
scalar StarLAN.host[3].pingApp[1] "ping out-of-order rate (%)" 0
scalar StarLAN.host[3].pingApp[1] pingRxSeq:count 322
attr interpolationmode none
attr title "ping rx seq, count"
scalar StarLAN.host[3].pingApp[1] pingTxSeq:count 322
attr interpolationmode none
attr title "ping tx seq, count"
scalar StarLAN.host[3].pingApp[1] numOutOfOrderArrivals:last nan
attr interpolationmode none
attr title "ping out-of-order arrivals, last"
scalar StarLAN.host[3].pingApp[1] numLost:last nan
attr interpolationmode none
attr title "pings lost, last"
scalar StarLAN.host[3].pingApp[1] rtt:mean 0.0016725056476679
attr interpolationmode none
attr title "ping round-trip time, mean"
attr unit s
scalar StarLAN.host[4].networkLayer.arp sentReply:count 0
attr title "ARP replies sent, count"
scalar StarLAN.host[4].networkLayer.arp sentReq:count 0
attr title "ARP request sent, count"
scalar StarLAN.host[4].networkLayer.arp failedARPResolution:count 0
attr title "ARP failed resolutions, count"
scalar StarLAN.host[4].networkLayer.arp completedARPResolution:count 0
attr title "ARP completed resolutions, count"
scalar StarLAN.host[4].networkLayer.arp initiatedARPResolution:count 0
attr title "ARP initiated resolutions, count"
scalar StarLAN.host[4].lo0.lo droppedPkBitError:count 0
attr interpolationmode none
attr source dropPkBitError
attr title "packets dropped/bit error, count"
scalar StarLAN.host[4].lo0.lo droppedPkBitError:sum(packetBytes) 0
attr interpolationmode none
attr source dropPkBitError
attr title "packets dropped/bit error, sum(packetBytes)"
scalar StarLAN.host[4].lo0.lo rcvdPkFromHL:count 108
attr interpolationmode none
attr source packetReceivedFromUpper
attr title "packets received from higher layer, count"
scalar StarLAN.host[4].lo0.lo rcvdPkFromHL:sum(packetBytes) 70332
attr interpolationmode none
attr source packetReceivedFromUpper
attr title "packets received from higher layer, sum(packetBytes)"
scalar StarLAN.host[4].lo0.lo passedUpPk:count 108
attr interpolationmode none
attr source packetSentToUpper
attr title "packets passed to higher layer, count"
scalar StarLAN.host[4].lo0.lo passedUpPk:sum(packetBytes) 70332
attr interpolationmode none
attr source packetSentToUpper
attr title "packets passed to higher layer, sum(packetBytes)"
scalar StarLAN.host[4].eth[0].queue.pauseQueue queueLength:max nan
attr interpolationmode sample-hold
attr title "queue length, max"
scalar StarLAN.host[4].eth[0].queue.pauseQueue queueLength:timeavg nan
attr interpolationmode sample-hold
attr title "queue length, timeavg"
statistic StarLAN.host[4].eth[0].queue.pauseQueue queueingTime:histogram
field count 0
field mean nan
field stddev nan
field min nan
field max nan
field sum 0
field sqrsum 0
attr interpolationmode none
attr title "queueing time, histogram"
bin	-inf	0
bin	-0.5	0
bin	-0.46666666666667	0
bin	-0.43333333333333	0
bin	-0.4	0
bin	-0.36666666666667	0
bin	-0.33333333333333	0
bin	-0.3	0
bin	-0.26666666666667	0
bin	-0.23333333333333	0
bin	-0.2	0
bin	-0.16666666666667	0
bin	-0.13333333333333	0
bin	-0.1	0
bin	-0.066666666666667	0
bin	-0.033333333333333	0
bin	0	0
bin	0.033333333333333	0
bin	0.066666666666667	0
bin	0.1	0
bin	0.13333333333333	0
bin	0.16666666666667	0
bin	0.2	0
bin	0.23333333333333	0
bin	0.26666666666667	0
bin	0.3	0
bin	0.33333333333333	0
bin	0.36666666666667	0
bin	0.4	0
bin	0.43333333333333	0
bin	0.46666666666667	0
bin	0.5	0
scalar StarLAN.host[4].eth[0].queue.pauseQueue dropPk:count 0
attr interpolationmode none
attr source dropPkByQueue
attr title "dropped packets, count"
scalar StarLAN.host[4].eth[0].queue.pauseQueue dropPk:sum(packetBytes) 0
attr interpolationmode none
attr source dropPkByQueue
attr title "dropped packets, sum(packetBytes)"
scalar StarLAN.host[4].eth[0].queue.pauseQueue rcvdPk:count 0
attr interpolationmode none
attr title "received packets, count"
scalar StarLAN.host[4].eth[0].queue.pauseQueue rcvdPk:sum(packetBytes) 0
attr interpolationmode none
attr title "received packets, sum(packetBytes)"
scalar StarLAN.host[4].eth[0].queue.dataQueue queueLength:max 1
attr interpolationmode sample-hold
attr title "queue length, max"
scalar StarLAN.host[4].eth[0].queue.dataQueue queueLength:timeavg 0.00058105593701283
attr interpolationmode sample-hold
attr title "queue length, timeavg"
statistic StarLAN.host[4].eth[0].queue.dataQueue queueingTime:histogram
field count 1040
field mean 8.3612705490385e-006
field stddev 5.5732099752524e-005
field min 0
field max 0.000660734574
field sum 0.008695721371
field sqrsum 3.2999108325975e-006
attr interpolationmode none
attr title "queueing time, histogram"
bin	-inf	0
bin	-0.000218459173	0
bin	-0.00018933128326667	0
bin	-0.00016020339353333	0
bin	-0.0001310755038	0
bin	-0.00010194761406667	0
bin	-7.2819724333333e-005	0
bin	-4.36918346e-005	0
bin	-1.4563944866667e-005	1010
bin	1.4563944866667e-005	1
bin	4.36918346e-005	1
bin	7.2819724333333e-005	1
bin	0.00010194761406667	2
bin	0.0001310755038	2
bin	0.00016020339353333	4
bin	0.00018933128326667	1
bin	0.000218459173	2
bin	0.00024758706273333	1
bin	0.00027671495246667	2
bin	0.0003058428422	1
bin	0.00033497073193333	3
bin	0.00036409862166667	2
bin	0.0003932265114	0
bin	0.00042235440113333	4
bin	0.00045148229086667	0
bin	0.0004806101806	0
bin	0.00050973807033333	1
bin	0.00053886596006667	0
bin	0.0005679938498	0
bin	0.00059712173953333	0
bin	0.00062624962926667	0
bin	0.000655377519	2
scalar StarLAN.host[4].eth[0].queue.dataQueue dropPk:count 0
attr interpolationmode none
attr source dropPkByQueue
attr title "dropped packets, count"
scalar StarLAN.host[4].eth[0].queue.dataQueue dropPk:sum(packetBytes) 0
attr interpolationmode none
attr source dropPkByQueue
attr title "dropped packets, sum(packetBytes)"
scalar StarLAN.host[4].eth[0].queue.dataQueue rcvdPk:count 1040
attr interpolationmode none
attr title "received packets, count"
scalar StarLAN.host[4].eth[0].queue.dataQueue rcvdPk:sum(packetBytes) 604378
attr interpolationmode none
attr title "received packets, sum(packetBytes)"
scalar StarLAN.host[4].eth[0].mac "simulated time" 20
scalar StarLAN.host[4].eth[0].mac full-duplex 1
scalar StarLAN.host[4].eth[0].mac "frames/sec sent" 67.65
scalar StarLAN.host[4].eth[0].mac "frames/sec rcvd" 69.45
scalar StarLAN.host[4].eth[0].mac "bits/sec sent" 312467.6
scalar StarLAN.host[4].eth[0].mac "bits/sec rcvd" 313389.2
scalar StarLAN.host[4].eth[0].mac "rx channel idle (%)" 96.82166
scalar StarLAN.host[4].eth[0].mac "rx channel utilization (%)" 3.17834
scalar StarLAN.host[4].eth[0].mac rxPkFromHL:count 1040
attr interpolationmode none
attr source rxPkFromHL
attr title "packet bytes from higher layer, count"
scalar StarLAN.host[4].eth[0].mac rxPkFromHL:sum(packetBytes) 604378
attr interpolationmode none
attr source rxPkFromHL
attr title "packet bytes from higher layer, sum(packetBytes)"
scalar StarLAN.host[4].eth[0].mac rxPausePkUnits:count 0
attr interpolationmode none
attr title "pause units received, count"
scalar StarLAN.host[4].eth[0].mac rxPausePkUnits:sum 0
attr interpolationmode none
attr title "pause units received, sum"
scalar StarLAN.host[4].eth[0].mac txPausePkUnits:count 0
attr interpolationmode none
attr title "pause units sent, count"
scalar StarLAN.host[4].eth[0].mac txPausePkUnits:sum 0
attr interpolationmode none
attr title "pause units sent, sum"
scalar StarLAN.host[4].eth[0].mac txPk:count 1040
attr interpolationmode none
attr source txPk
attr title "packets transmitted, count"
scalar StarLAN.host[4].eth[0].mac txPk:sum(packetBytes) 604378
attr interpolationmode none
attr source txPk
attr title "packets transmitted, sum(packetBytes)"
scalar StarLAN.host[4].eth[0].mac droppedPkNotForUs:count 0
attr interpolationmode none
attr source dropPkNotForUs
attr title "packets dropped/not for us, count"
scalar StarLAN.host[4].eth[0].mac droppedPkNotForUs:sum(packetBytes) 0
attr interpolationmode none
attr source dropPkNotForUs
attr title "packets dropped/not for us, sum(packetBytes)"
scalar StarLAN.host[4].eth[0].mac droppedPkBitError:count 0
attr interpolationmode none
attr source dropPkBitError
attr title "packets dropped/bit error, count"
scalar StarLAN.host[4].eth[0].mac droppedPkBitError:sum(packetBytes) 0
attr interpolationmode none
attr source dropPkBitError
attr title "packets dropped/bit error, sum(packetBytes)"
scalar StarLAN.host[4].eth[0].mac droppedPkIfaceDown:count 0
attr interpolationmode none
attr source dropPkIfaceDown
attr title "packets dropped/interface down, count"
scalar StarLAN.host[4].eth[0].mac droppedPkIfaceDown:sum(packetBytes) 0
attr interpolationmode none
attr source dropPkIfaceDown
attr title "packets dropped/interface down, sum(packetBytes)"
scalar StarLAN.host[4].eth[0].mac rxPkOk:count 1041
attr interpolationmode none
attr source rxPkOk
attr title "packets received OK, count"
scalar StarLAN.host[4].eth[0].mac rxPkOk:sum(packetBytes) 604900
attr interpolationmode none
attr source rxPkOk
attr title "packets received OK, sum(packetBytes)"
scalar StarLAN.host[4].eth[0].mac passedUpPk:count 1041
attr interpolationmode none
attr source packetSentToUpper
attr title "packets passed to higher layer, count"
scalar StarLAN.host[4].eth[0].mac passedUpPk:sum(packetBytes) 604900
attr interpolationmode none
attr source packetSentToUpper
attr title "packets passed to higher layer, sum(packetBytes)"
scalar StarLAN.host[4].eth[0].encap pauseSent:count 0
attr title "pause sent, count"
scalar StarLAN.host[4].eth[0].encap pauseSent:sum 0
attr title "pause sent, sum"
scalar StarLAN.host[4].eth[0].encap decapPk:count 1041
attr interpolationmode none
attr source decapPk
attr title "packets decapsulated, count"
scalar StarLAN.host[4].eth[0].encap decapPk:sum(packetBytes) 586162
attr interpolationmode none
attr source decapPk
attr title "packets decapsulated, sum(packetBytes)"
scalar StarLAN.host[4].eth[0].encap encapPk:count 1040
attr interpolationmode none
attr source encapPk
attr title "packets encapsulated, count"
scalar StarLAN.host[4].eth[0].encap encapPk:sum(packetBytes) 585658
attr interpolationmode none
attr source encapPk
attr title "packets encapsulated, sum(packetBytes)"
scalar StarLAN.host[4].pingApp[0] "Pings sent" 380
scalar StarLAN.host[4].pingApp[0] "ping loss rate (%)" 0
scalar StarLAN.host[4].pingApp[0] "ping out-of-order rate (%)" 0
scalar StarLAN.host[4].pingApp[0] pingRxSeq:count 291
attr interpolationmode none
attr title "ping rx seq, count"
scalar StarLAN.host[4].pingApp[0] pingTxSeq:count 290
attr interpolationmode none
attr title "ping tx seq, count"
scalar StarLAN.host[4].pingApp[0] numOutOfOrderArrivals:last nan
attr interpolationmode none
attr title "ping out-of-order arrivals, last"
scalar StarLAN.host[4].pingApp[0] numLost:last nan
attr interpolationmode none
attr title "pings lost, last"
scalar StarLAN.host[4].pingApp[0] rtt:mean 0.0017243949928092
attr interpolationmode none
attr title "ping round-trip time, mean"
attr unit s
scalar StarLAN.host[4].pingApp[1] "Pings sent" 377
scalar StarLAN.host[4].pingApp[1] "ping loss rate (%)" 0
scalar StarLAN.host[4].pingApp[1] "ping out-of-order rate (%)" 0.26525198938992
scalar StarLAN.host[4].pingApp[1] pingRxSeq:count 288
attr interpolationmode none
attr title "ping rx seq, count"
scalar StarLAN.host[4].pingApp[1] pingTxSeq:count 288
attr interpolationmode none
attr title "ping tx seq, count"
scalar StarLAN.host[4].pingApp[1] numOutOfOrderArrivals:last nan
attr interpolationmode none
attr title "ping out-of-order arrivals, last"
scalar StarLAN.host[4].pingApp[1] numLost:last nan
attr interpolationmode none
attr title "pings lost, last"
scalar StarLAN.host[4].pingApp[1] rtt:mean 0.002741022429289
attr interpolationmode none
attr title "ping round-trip time, mean"
attr unit s
scalar StarLAN.host[5].networkLayer.arp sentReply:count 0
attr title "ARP replies sent, count"
scalar StarLAN.host[5].networkLayer.arp sentReq:count 0
attr title "ARP request sent, count"
scalar StarLAN.host[5].networkLayer.arp failedARPResolution:count 0
attr title "ARP failed resolutions, count"
scalar StarLAN.host[5].networkLayer.arp completedARPResolution:count 0
attr title "ARP completed resolutions, count"
scalar StarLAN.host[5].networkLayer.arp initiatedARPResolution:count 0
attr title "ARP initiated resolutions, count"
scalar StarLAN.host[5].lo0.lo droppedPkBitError:count 0
attr interpolationmode none
attr source dropPkBitError
attr title "packets dropped/bit error, count"
scalar StarLAN.host[5].lo0.lo droppedPkBitError:sum(packetBytes) 0
attr interpolationmode none
attr source dropPkBitError
attr title "packets dropped/bit error, sum(packetBytes)"
scalar StarLAN.host[5].lo0.lo rcvdPkFromHL:count 104
attr interpolationmode none
attr source packetReceivedFromUpper
attr title "packets received from higher layer, count"
scalar StarLAN.host[5].lo0.lo rcvdPkFromHL:sum(packetBytes) 50242
attr interpolationmode none
attr source packetReceivedFromUpper
attr title "packets received from higher layer, sum(packetBytes)"
scalar StarLAN.host[5].lo0.lo passedUpPk:count 104
attr interpolationmode none
attr source packetSentToUpper
attr title "packets passed to higher layer, count"
scalar StarLAN.host[5].lo0.lo passedUpPk:sum(packetBytes) 50242
attr interpolationmode none
attr source packetSentToUpper
attr title "packets passed to higher layer, sum(packetBytes)"
scalar StarLAN.host[5].eth[0].queue.pauseQueue queueLength:max nan
attr interpolationmode sample-hold
attr title "queue length, max"
scalar StarLAN.host[5].eth[0].queue.pauseQueue queueLength:timeavg nan
attr interpolationmode sample-hold
attr title "queue length, timeavg"
statistic StarLAN.host[5].eth[0].queue.pauseQueue queueingTime:histogram
field count 0
field mean nan
field stddev nan
field min nan
field max nan
field sum 0
field sqrsum 0
attr interpolationmode none
attr title "queueing time, histogram"
bin	-inf	0
bin	-0.5	0
bin	-0.46666666666667	0
bin	-0.43333333333333	0
bin	-0.4	0
bin	-0.36666666666667	0
bin	-0.33333333333333	0
bin	-0.3	0
bin	-0.26666666666667	0
bin	-0.23333333333333	0
bin	-0.2	0
bin	-0.16666666666667	0
bin	-0.13333333333333	0
bin	-0.1	0
bin	-0.066666666666667	0
bin	-0.033333333333333	0
bin	0	0
bin	0.033333333333333	0
bin	0.066666666666667	0
bin	0.1	0
bin	0.13333333333333	0
bin	0.16666666666667	0
bin	0.2	0
bin	0.23333333333333	0
bin	0.26666666666667	0
bin	0.3	0
bin	0.33333333333333	0
bin	0.36666666666667	0
bin	0.4	0
bin	0.43333333333333	0
bin	0.46666666666667	0
bin	0.5	0
scalar StarLAN.host[5].eth[0].queue.pauseQueue dropPk:count 0
attr interpolationmode none
attr source dropPkByQueue
attr title "dropped packets, count"
scalar StarLAN.host[5].eth[0].queue.pauseQueue dropPk:sum(packetBytes) 0
attr interpolationmode none
attr source dropPkByQueue
attr title "dropped packets, sum(packetBytes)"
scalar StarLAN.host[5].eth[0].queue.pauseQueue rcvdPk:count 0
attr interpolationmode none
attr title "received packets, count"
scalar StarLAN.host[5].eth[0].queue.pauseQueue rcvdPk:sum(packetBytes) 0
attr interpolationmode none
attr title "received packets, sum(packetBytes)"
scalar StarLAN.host[5].eth[0].queue.dataQueue queueLength:max 2
attr interpolationmode sample-hold
attr title "queue length, max"
scalar StarLAN.host[5].eth[0].queue.dataQueue queueLength:timeavg 0.00051852968851437
attr interpolationmode sample-hold
attr title "queue length, timeavg"
statistic StarLAN.host[5].eth[0].queue.dataQueue queueingTime:histogram
field count 1017
field mean 7.6419230609636e-006
field stddev 5.1586882336462e-005
field min 0
field max 0.000542913123
field sum 0.007771835753
field sqrsum 2.7631775029299e-006
attr interpolationmode none
attr title "queueing time, histogram"
bin	-inf	0
bin	-0.000182034512	0
bin	-0.00015776324373333	0
bin	-0.00013349197546667	0
bin	-0.0001092207072	0
bin	-8.4949438933333e-005	0
bin	-6.0678170666667e-005	0
bin	-3.64069024e-005	0
bin	-1.2135634133333e-005	987
bin	1.2135634133333e-005	3
bin	3.64069024e-005	2
bin	6.0678170666667e-005	0
bin	8.4949438933333e-005	1
bin	0.0001092207072	3
bin	0.00013349197546667	1
bin	0.00015776324373333	1
bin	0.000182034512	2
bin	0.00020630578026667	1
bin	0.00023057704853333	0
bin	0.0002548483168	1
bin	0.00027911958506667	2
bin	0.00030339085333333	1
bin	0.0003276621216	0
bin	0.00035193338986667	4
bin	0.00037620465813333	2
bin	0.0004004759264	1
bin	0.00042474719466667	2
bin	0.00044901846293333	0
bin	0.0004732897312	1
bin	0.00049756099946667	1
bin	0.00052183226773333	1
bin	0.000546103536	0
scalar StarLAN.host[5].eth[0].queue.dataQueue dropPk:count 0
attr interpolationmode none
attr source dropPkByQueue
attr title "dropped packets, count"
scalar StarLAN.host[5].eth[0].queue.dataQueue dropPk:sum(packetBytes) 0
attr interpolationmode none
attr source dropPkByQueue
attr title "dropped packets, sum(packetBytes)"
scalar StarLAN.host[5].eth[0].queue.dataQueue rcvdPk:count 1017
attr interpolationmode none
attr title "received packets, count"
scalar StarLAN.host[5].eth[0].queue.dataQueue rcvdPk:sum(packetBytes) 522305
attr interpolationmode none
attr title "received packets, sum(packetBytes)"
scalar StarLAN.host[5].eth[0].mac "simulated time" 20
scalar StarLAN.host[5].eth[0].mac full-duplex 1
scalar StarLAN.host[5].eth[0].mac "frames/sec sent" 68
scalar StarLAN.host[5].eth[0].mac "frames/sec rcvd" 69.8
scalar StarLAN.host[5].eth[0].mac "bits/sec sent" 276365.6
scalar StarLAN.host[5].eth[0].mac "bits/sec rcvd" 277287.2
scalar StarLAN.host[5].eth[0].mac "rx channel idle (%)" 97.182456
scalar StarLAN.host[5].eth[0].mac "rx channel utilization (%)" 2.817544
scalar StarLAN.host[5].eth[0].mac rxPkFromHL:count 1017
attr interpolationmode none
attr source rxPkFromHL
attr title "packet bytes from higher layer, count"
scalar StarLAN.host[5].eth[0].mac rxPkFromHL:sum(packetBytes) 522305
attr interpolationmode none
attr source rxPkFromHL
attr title "packet bytes from higher layer, sum(packetBytes)"
scalar StarLAN.host[5].eth[0].mac rxPausePkUnits:count 0
attr interpolationmode none
attr title "pause units received, count"
scalar StarLAN.host[5].eth[0].mac rxPausePkUnits:sum 0
attr interpolationmode none
attr title "pause units received, sum"
scalar StarLAN.host[5].eth[0].mac txPausePkUnits:count 0
attr interpolationmode none
attr title "pause units sent, count"
scalar StarLAN.host[5].eth[0].mac txPausePkUnits:sum 0
attr interpolationmode none
attr title "pause units sent, sum"
scalar StarLAN.host[5].eth[0].mac txPk:count 1018
attr interpolationmode none
attr source txPk
attr title "packets transmitted, count"
scalar StarLAN.host[5].eth[0].mac txPk:sum(packetBytes) 522827
attr interpolationmode none
attr source txPk
attr title "packets transmitted, sum(packetBytes)"
scalar StarLAN.host[5].eth[0].mac droppedPkNotForUs:count 0
attr interpolationmode none
attr source dropPkNotForUs
attr title "packets dropped/not for us, count"
scalar StarLAN.host[5].eth[0].mac droppedPkNotForUs:sum(packetBytes) 0
attr interpolationmode none
attr source dropPkNotForUs
attr title "packets dropped/not for us, sum(packetBytes)"
scalar StarLAN.host[5].eth[0].mac droppedPkBitError:count 0
attr interpolationmode none
attr source dropPkBitError
attr title "packets dropped/bit error, count"
scalar StarLAN.host[5].eth[0].mac droppedPkBitError:sum(packetBytes) 0
attr interpolationmode none
attr source dropPkBitError
attr title "packets dropped/bit error, sum(packetBytes)"
scalar StarLAN.host[5].eth[0].mac droppedPkIfaceDown:count 0
attr interpolationmode none
attr source dropPkIfaceDown
attr title "packets dropped/interface down, count"
scalar StarLAN.host[5].eth[0].mac droppedPkIfaceDown:sum(packetBytes) 0
attr interpolationmode none
attr source dropPkIfaceDown
attr title "packets dropped/interface down, sum(packetBytes)"
scalar StarLAN.host[5].eth[0].mac rxPkOk:count 1017
attr interpolationmode none
attr source rxPkOk
attr title "packets received OK, count"
scalar StarLAN.host[5].eth[0].mac rxPkOk:sum(packetBytes) 522305
attr interpolationmode none
attr source rxPkOk
attr title "packets received OK, sum(packetBytes)"
scalar StarLAN.host[5].eth[0].mac passedUpPk:count 1017
attr interpolationmode none
attr source packetSentToUpper
attr title "packets passed to higher layer, count"
scalar StarLAN.host[5].eth[0].mac passedUpPk:sum(packetBytes) 522305
attr interpolationmode none
attr source packetSentToUpper
attr title "packets passed to higher layer, sum(packetBytes)"
scalar StarLAN.host[5].eth[0].encap pauseSent:count 0
attr title "pause sent, count"
scalar StarLAN.host[5].eth[0].encap pauseSent:sum 0
attr title "pause sent, sum"
scalar StarLAN.host[5].eth[0].encap decapPk:count 1017
attr interpolationmode none
attr source decapPk
attr title "packets decapsulated, count"
scalar StarLAN.host[5].eth[0].encap decapPk:sum(packetBytes) 503999
attr interpolationmode none
attr source decapPk
attr title "packets decapsulated, sum(packetBytes)"
scalar StarLAN.host[5].eth[0].encap encapPk:count 1017
attr interpolationmode none
attr source encapPk
attr title "packets encapsulated, count"
scalar StarLAN.host[5].eth[0].encap encapPk:sum(packetBytes) 503999
attr interpolationmode none
attr source encapPk
attr title "packets encapsulated, sum(packetBytes)"
scalar StarLAN.host[5].pingApp[0] "Pings sent" 374
scalar StarLAN.host[5].pingApp[0] "ping loss rate (%)" 0
scalar StarLAN.host[5].pingApp[0] "ping out-of-order rate (%)" 0
scalar StarLAN.host[5].pingApp[0] pingRxSeq:count 284
attr interpolationmode none
attr title "ping rx seq, count"
scalar StarLAN.host[5].pingApp[0] pingTxSeq:count 284
attr interpolationmode none
attr title "ping tx seq, count"
scalar StarLAN.host[5].pingApp[0] numOutOfOrderArrivals:last nan
attr interpolationmode none
attr title "ping out-of-order arrivals, last"
scalar StarLAN.host[5].pingApp[0] numLost:last nan
attr interpolationmode none
attr title "pings lost, last"
scalar StarLAN.host[5].pingApp[0] rtt:mean 0.0022955890534373
attr interpolationmode none
attr title "ping round-trip time, mean"
attr unit s
scalar StarLAN.host[5].pingApp[1] "Pings sent" 384
scalar StarLAN.host[5].pingApp[1] "ping loss rate (%)" 0
scalar StarLAN.host[5].pingApp[1] "ping out-of-order rate (%)" 0
scalar StarLAN.host[5].pingApp[1] pingRxSeq:count 284
attr interpolationmode none
attr title "ping rx seq, count"
scalar StarLAN.host[5].pingApp[1] pingTxSeq:count 284
attr interpolationmode none
attr title "ping tx seq, count"
scalar StarLAN.host[5].pingApp[1] numOutOfOrderArrivals:last nan
attr interpolationmode none
attr title "ping out-of-order arrivals, last"
scalar StarLAN.host[5].pingApp[1] numLost:last nan
attr interpolationmode none
attr title "pings lost, last"
scalar StarLAN.host[5].pingApp[1] rtt:mean 0.0012258574133755
attr interpolationmode none
attr title "ping round-trip time, mean"
attr unit s
scalar StarLAN.host[6].networkLayer.arp sentReply:count 0
attr title "ARP replies sent, count"
scalar StarLAN.host[6].networkLayer.arp sentReq:count 0
attr title "ARP request sent, count"
scalar StarLAN.host[6].networkLayer.arp failedARPResolution:count 0
attr title "ARP failed resolutions, count"
scalar StarLAN.host[6].networkLayer.arp completedARPResolution:count 0
attr title "ARP completed resolutions, count"
scalar StarLAN.host[6].networkLayer.arp initiatedARPResolution:count 0
attr title "ARP initiated resolutions, count"
scalar StarLAN.host[6].lo0.lo droppedPkBitError:count 0
attr interpolationmode none
attr source dropPkBitError
attr title "packets dropped/bit error, count"
scalar StarLAN.host[6].lo0.lo droppedPkBitError:sum(packetBytes) 0
attr interpolationmode none
attr source dropPkBitError
attr title "packets dropped/bit error, sum(packetBytes)"
scalar StarLAN.host[6].lo0.lo rcvdPkFromHL:count 110
attr interpolationmode none
attr source packetReceivedFromUpper
attr title "packets received from higher layer, count"
scalar StarLAN.host[6].lo0.lo rcvdPkFromHL:sum(packetBytes) 39094
attr interpolationmode none
attr source packetReceivedFromUpper
attr title "packets received from higher layer, sum(packetBytes)"
scalar StarLAN.host[6].lo0.lo passedUpPk:count 110
attr interpolationmode none
attr source packetSentToUpper
attr title "packets passed to higher layer, count"
scalar StarLAN.host[6].lo0.lo passedUpPk:sum(packetBytes) 39094
attr interpolationmode none
attr source packetSentToUpper
attr title "packets passed to higher layer, sum(packetBytes)"
scalar StarLAN.host[6].eth[0].queue.pauseQueue queueLength:max nan
attr interpolationmode sample-hold
attr title "queue length, max"
scalar StarLAN.host[6].eth[0].queue.pauseQueue queueLength:timeavg nan
attr interpolationmode sample-hold
attr title "queue length, timeavg"
statistic StarLAN.host[6].eth[0].queue.pauseQueue queueingTime:histogram
field count 0
field mean nan
field stddev nan
field min nan
field max nan
field sum 0
field sqrsum 0
attr interpolationmode none
attr title "queueing time, histogram"
bin	-inf	0
bin	-0.5	0
bin	-0.46666666666667	0
bin	-0.43333333333333	0
bin	-0.4	0
bin	-0.36666666666667	0
bin	-0.33333333333333	0
bin	-0.3	0
bin	-0.26666666666667	0
bin	-0.23333333333333	0
bin	-0.2	0
bin	-0.16666666666667	0
bin	-0.13333333333333	0
bin	-0.1	0
bin	-0.066666666666667	0
bin	-0.033333333333333	0
bin	0	0
bin	0.033333333333333	0
bin	0.066666666666667	0
bin	0.1	0
bin	0.13333333333333	0
bin	0.16666666666667	0
bin	0.2	0
bin	0.23333333333333	0
bin	0.26666666666667	0
bin	0.3	0
bin	0.33333333333333	0
bin	0.36666666666667	0
bin	0.4	0
bin	0.43333333333333	0
bin	0.46666666666667	0
bin	0.5	0
scalar StarLAN.host[6].eth[0].queue.pauseQueue dropPk:count 0
attr interpolationmode none
attr source dropPkByQueue
attr title "dropped packets, count"
scalar StarLAN.host[6].eth[0].queue.pauseQueue dropPk:sum(packetBytes) 0
attr interpolationmode none
attr source dropPkByQueue
attr title "dropped packets, sum(packetBytes)"
scalar StarLAN.host[6].eth[0].queue.pauseQueue rcvdPk:count 0
attr interpolationmode none
attr title "received packets, count"
scalar StarLAN.host[6].eth[0].queue.pauseQueue rcvdPk:sum(packetBytes) 0
attr interpolationmode none
attr title "received packets, sum(packetBytes)"
scalar StarLAN.host[6].eth[0].queue.dataQueue queueLength:max 2
attr interpolationmode sample-hold
attr title "queue length, max"
scalar StarLAN.host[6].eth[0].queue.dataQueue queueLength:timeavg 0.00038267080876719
attr interpolationmode sample-hold
attr title "queue length, timeavg"
statistic StarLAN.host[6].eth[0].queue.dataQueue queueingTime:histogram
field count 1072
field mean 5.3544266324627e-006
field stddev 4.1317516958666e-005
field min 0
field max 0.000514441073
field sum 0.00573994535
field sqrsum 1.8590780656222e-006
attr interpolationmode none
attr title "queueing time, histogram"
bin	-inf	0
bin	-0.5	0
bin	-0.46666666666667	0
bin	-0.43333333333333	0
bin	-0.4	0
bin	-0.36666666666667	0
bin	-0.33333333333333	0
bin	-0.3	0
bin	-0.26666666666667	0
bin	-0.23333333333333	0
bin	-0.2	0
bin	-0.16666666666667	0
bin	-0.13333333333333	0
bin	-0.1	0
bin	-0.066666666666667	0
bin	-0.033333333333333	0
bin	0	1072
bin	0.033333333333333	0
bin	0.066666666666667	0
bin	0.1	0
bin	0.13333333333333	0
bin	0.16666666666667	0
bin	0.2	0
bin	0.23333333333333	0
bin	0.26666666666667	0
bin	0.3	0
bin	0.33333333333333	0
bin	0.36666666666667	0
bin	0.4	0
bin	0.43333333333333	0
bin	0.46666666666667	0
bin	0.5	0
scalar StarLAN.host[6].eth[0].queue.dataQueue dropPk:count 0
attr interpolationmode none
attr source dropPkByQueue
attr title "dropped packets, count"
scalar StarLAN.host[6].eth[0].queue.dataQueue dropPk:sum(packetBytes) 0
attr interpolationmode none
attr source dropPkByQueue
attr title "dropped packets, sum(packetBytes)"
scalar StarLAN.host[6].eth[0].queue.dataQueue rcvdPk:count 1072
attr interpolationmode none
attr title "received packets, count"
scalar StarLAN.host[6].eth[0].queue.dataQueue rcvdPk:sum(packetBytes) 501144
attr interpolationmode none
attr title "received packets, sum(packetBytes)"
scalar StarLAN.host[6].eth[0].mac "simulated time" 20
scalar StarLAN.host[6].eth[0].mac full-duplex 1
scalar StarLAN.host[6].eth[0].mac "frames/sec sent" 70.8
scalar StarLAN.host[6].eth[0].mac "frames/sec rcvd" 72.6
scalar StarLAN.host[6].eth[0].mac "bits/sec sent" 262066.4
scalar StarLAN.host[6].eth[0].mac "bits/sec rcvd" 262988
scalar StarLAN.host[6].eth[0].mac "rx channel idle (%)" 97.323656
scalar StarLAN.host[6].eth[0].mac "rx channel utilization (%)" 2.676344
scalar StarLAN.host[6].eth[0].mac rxPkFromHL:count 1072
attr interpolationmode none
attr source rxPkFromHL
attr title "packet bytes from higher layer, count"
scalar StarLAN.host[6].eth[0].mac rxPkFromHL:sum(packetBytes) 501144
attr interpolationmode none
attr source rxPkFromHL
attr title "packet bytes from higher layer, sum(packetBytes)"
scalar StarLAN.host[6].eth[0].mac rxPausePkUnits:count 0
attr interpolationmode none
attr title "pause units received, count"
scalar StarLAN.host[6].eth[0].mac rxPausePkUnits:sum 0
attr interpolationmode none
attr title "pause units received, sum"
scalar StarLAN.host[6].eth[0].mac txPausePkUnits:count 0
attr interpolationmode none
attr title "pause units sent, count"
scalar StarLAN.host[6].eth[0].mac txPausePkUnits:sum 0
attr interpolationmode none
attr title "pause units sent, sum"
scalar StarLAN.host[6].eth[0].mac txPk:count 1072
attr interpolationmode none
attr source txPk
attr title "packets transmitted, count"
scalar StarLAN.host[6].eth[0].mac txPk:sum(packetBytes) 501144
attr interpolationmode none
attr source txPk
attr title "packets transmitted, sum(packetBytes)"
scalar StarLAN.host[6].eth[0].mac droppedPkNotForUs:count 0
attr interpolationmode none
attr source dropPkNotForUs
attr title "packets dropped/not for us, count"
scalar StarLAN.host[6].eth[0].mac droppedPkNotForUs:sum(packetBytes) 0
attr interpolationmode none
attr source dropPkNotForUs
attr title "packets dropped/not for us, sum(packetBytes)"
scalar StarLAN.host[6].eth[0].mac droppedPkBitError:count 0
attr interpolationmode none
attr source dropPkBitError
attr title "packets dropped/bit error, count"
scalar StarLAN.host[6].eth[0].mac droppedPkBitError:sum(packetBytes) 0
attr interpolationmode none
attr source dropPkBitError
attr title "packets dropped/bit error, sum(packetBytes)"
scalar StarLAN.host[6].eth[0].mac droppedPkIfaceDown:count 0
attr interpolationmode none
attr source dropPkIfaceDown
attr title "packets dropped/interface down, count"
scalar StarLAN.host[6].eth[0].mac droppedPkIfaceDown:sum(packetBytes) 0
attr interpolationmode none
attr source dropPkIfaceDown
attr title "packets dropped/interface down, sum(packetBytes)"
scalar StarLAN.host[6].eth[0].mac rxPkOk:count 1072
attr interpolationmode none
attr source rxPkOk
attr title "packets received OK, count"
scalar StarLAN.host[6].eth[0].mac rxPkOk:sum(packetBytes) 501144
attr interpolationmode none
attr source rxPkOk
attr title "packets received OK, sum(packetBytes)"
scalar StarLAN.host[6].eth[0].mac passedUpPk:count 1072
attr interpolationmode none
attr source packetSentToUpper
attr title "packets passed to higher layer, count"
scalar StarLAN.host[6].eth[0].mac passedUpPk:sum(packetBytes) 501144
attr interpolationmode none
attr source packetSentToUpper
attr title "packets passed to higher layer, sum(packetBytes)"
scalar StarLAN.host[6].eth[0].encap pauseSent:count 0
attr title "pause sent, count"
scalar StarLAN.host[6].eth[0].encap pauseSent:sum 0
attr title "pause sent, sum"
scalar StarLAN.host[6].eth[0].encap decapPk:count 1072
attr interpolationmode none
attr source decapPk
attr title "packets decapsulated, count"
scalar StarLAN.host[6].eth[0].encap decapPk:sum(packetBytes) 481848
attr interpolationmode none
attr source decapPk
attr title "packets decapsulated, sum(packetBytes)"
scalar StarLAN.host[6].eth[0].encap encapPk:count 1072
attr interpolationmode none
attr source encapPk
attr title "packets encapsulated, count"
scalar StarLAN.host[6].eth[0].encap encapPk:sum(packetBytes) 481848
attr interpolationmode none
attr source encapPk
attr title "packets encapsulated, sum(packetBytes)"
scalar StarLAN.host[6].pingApp[0] "Pings sent" 391
scalar StarLAN.host[6].pingApp[0] "ping loss rate (%)" 0
scalar StarLAN.host[6].pingApp[0] "ping out-of-order rate (%)" 0
scalar StarLAN.host[6].pingApp[0] pingRxSeq:count 297
attr interpolationmode none
attr title "ping rx seq, count"
scalar StarLAN.host[6].pingApp[0] pingTxSeq:count 297
attr interpolationmode none
attr title "ping tx seq, count"
scalar StarLAN.host[6].pingApp[0] numOutOfOrderArrivals:last nan
attr interpolationmode none
attr title "ping out-of-order arrivals, last"
scalar StarLAN.host[6].pingApp[0] numLost:last nan
attr interpolationmode none
attr title "pings lost, last"
scalar StarLAN.host[6].pingApp[0] rtt:mean 0.00082612467857415
attr interpolationmode none
attr title "ping round-trip time, mean"
attr unit s
scalar StarLAN.host[6].pingApp[1] "Pings sent" 387
scalar StarLAN.host[6].pingApp[1] "ping loss rate (%)" 0
scalar StarLAN.host[6].pingApp[1] "ping out-of-order rate (%)" 0
scalar StarLAN.host[6].pingApp[1] pingRxSeq:count 298
attr interpolationmode none
attr title "ping rx seq, count"
scalar StarLAN.host[6].pingApp[1] pingTxSeq:count 298
attr interpolationmode none
attr title "ping tx seq, count"
scalar StarLAN.host[6].pingApp[1] numOutOfOrderArrivals:last nan
attr interpolationmode none
attr title "ping out-of-order arrivals, last"
scalar StarLAN.host[6].pingApp[1] numLost:last nan
attr interpolationmode none
attr title "pings lost, last"
scalar StarLAN.host[6].pingApp[1] rtt:mean 0.0019388486361625
attr interpolationmode none
attr title "ping round-trip time, mean"
attr unit s
scalar StarLAN.host[7].networkLayer.arp sentReply:count 0
attr title "ARP replies sent, count"
scalar StarLAN.host[7].networkLayer.arp sentReq:count 0
attr title "ARP request sent, count"
scalar StarLAN.host[7].networkLayer.arp failedARPResolution:count 0
attr title "ARP failed resolutions, count"
scalar StarLAN.host[7].networkLayer.arp completedARPResolution:count 0
attr title "ARP completed resolutions, count"
scalar StarLAN.host[7].networkLayer.arp initiatedARPResolution:count 0
attr title "ARP initiated resolutions, count"
scalar StarLAN.host[7].lo0.lo droppedPkBitError:count 0
attr interpolationmode none
attr source dropPkBitError
attr title "packets dropped/bit error, count"
scalar StarLAN.host[7].lo0.lo droppedPkBitError:sum(packetBytes) 0
attr interpolationmode none
attr source dropPkBitError
attr title "packets dropped/bit error, sum(packetBytes)"
scalar StarLAN.host[7].lo0.lo rcvdPkFromHL:count 126
attr interpolationmode none
attr source packetReceivedFromUpper
attr title "packets received from higher layer, count"
scalar StarLAN.host[7].lo0.lo rcvdPkFromHL:sum(packetBytes) 48528
attr interpolationmode none
attr source packetReceivedFromUpper
attr title "packets received from higher layer, sum(packetBytes)"
scalar StarLAN.host[7].lo0.lo passedUpPk:count 126
attr interpolationmode none
attr source packetSentToUpper
attr title "packets passed to higher layer, count"
scalar StarLAN.host[7].lo0.lo passedUpPk:sum(packetBytes) 48528
attr interpolationmode none
attr source packetSentToUpper
attr title "packets passed to higher layer, sum(packetBytes)"
scalar StarLAN.host[7].eth[0].queue.pauseQueue queueLength:max nan
attr interpolationmode sample-hold
attr title "queue length, max"
scalar StarLAN.host[7].eth[0].queue.pauseQueue queueLength:timeavg nan
attr interpolationmode sample-hold
attr title "queue length, timeavg"
statistic StarLAN.host[7].eth[0].queue.pauseQueue queueingTime:histogram
field count 0
field mean nan
field stddev nan
field min nan
field max nan
field sum 0
field sqrsum 0
attr interpolationmode none
attr title "queueing time, histogram"
bin	-inf	0
bin	-0.5	0
bin	-0.46666666666667	0
bin	-0.43333333333333	0
bin	-0.4	0
bin	-0.36666666666667	0
bin	-0.33333333333333	0
bin	-0.3	0
bin	-0.26666666666667	0
bin	-0.23333333333333	0
bin	-0.2	0
bin	-0.16666666666667	0
bin	-0.13333333333333	0
bin	-0.1	0
bin	-0.066666666666667	0
bin	-0.033333333333333	0
bin	0	0
bin	0.033333333333333	0
bin	0.066666666666667	0
bin	0.1	0
bin	0.13333333333333	0
bin	0.16666666666667	0
bin	0.2	0
bin	0.23333333333333	0
bin	0.26666666666667	0
bin	0.3	0
bin	0.33333333333333	0
bin	0.36666666666667	0
bin	0.4	0
bin	0.43333333333333	0
bin	0.46666666666667	0
bin	0.5	0
scalar StarLAN.host[7].eth[0].queue.pauseQueue dropPk:count 0
[...]
field count 1027
field mean 4.7547173359299e-006
field stddev 3.7885015999383e-005
field min 0
field max 0.000625854167
field sum 0.004883094704
field sqrsum 1.4958093076847e-006
attr interpolationmode none
attr title "queueing time, histogram"
bin	-inf	0
bin	-0.000139178756	0
bin	-0.00012062158853333	0
bin	-0.00010206442106667	0
bin	-8.35072536e-005	0
bin	-6.4950086133333e-005	0
bin	-4.6392918666667e-005	0
bin	-2.78357512e-005	0
bin	-9.2785837333333e-006	1004
bin	9.2785837333333e-006	0
bin	2.78357512e-005	1
bin	4.6392918666667e-005	1
bin	6.4950086133333e-005	0
bin	8.35072536e-005	2
bin	0.00010206442106667	4
bin	0.00012062158853333	2
bin	0.000139178756	0
bin	0.00015773592346667	2
bin	0.00017629309093333	0
bin	0.0001948502584	2
bin	0.00021340742586667	1
bin	0.00023196459333333	1
bin	0.0002505217608	1
bin	0.00026907892826667	1
bin	0.00028763609573333	0
bin	0.0003061932632	1
bin	0.00032475043066667	1
bin	0.00034330759813333	0
bin	0.0003618647656	0
bin	0.00038042193306667	1
bin	0.00039897910053333	0
bin	0.000417536268	2
scalar StarLAN.router.eth[7].queue.dataQueue dropPk:count 0
attr interpolationmode none
attr source dropPkByQueue
attr title "dropped packets, count"
scalar StarLAN.router.eth[7].queue.dataQueue dropPk:sum(packetBytes) 0
attr interpolationmode none
attr source dropPkByQueue
attr title "dropped packets, sum(packetBytes)"
scalar StarLAN.router.eth[7].queue.dataQueue rcvdPk:count 1027
attr interpolationmode none
attr title "received packets, count"
scalar StarLAN.router.eth[7].queue.dataQueue rcvdPk:sum(packetBytes) 472181
attr interpolationmode none
attr title "received packets, sum(packetBytes)"
scalar StarLAN.router.eth[7].mac "simulated time" 20
scalar StarLAN.router.eth[7].mac full-duplex 1
scalar StarLAN.router.eth[7].mac "frames/sec sent" 70.1
scalar StarLAN.router.eth[7].mac "frames/sec rcvd" 68.3
scalar StarLAN.router.eth[7].mac "bits/sec sent" 252636.4
scalar StarLAN.router.eth[7].mac "bits/sec rcvd" 251714.8
scalar StarLAN.router.eth[7].mac "rx channel idle (%)" 97.43914
scalar StarLAN.router.eth[7].mac "rx channel utilization (%)" 2.56086
scalar StarLAN.router.eth[7].mac "rx channel collision (%)" 0
scalar StarLAN.router.eth[7].mac collisions 0
scalar StarLAN.router.eth[7].mac backoffs 0
scalar StarLAN.router.eth[7].mac backoff:count 0
attr interpolationmode none
attr title "backoff, count"
scalar StarLAN.router.eth[7].mac collision:count 0
attr interpolationmode none
attr title "collision, count"
scalar StarLAN.router.eth[7].mac rxPkFromHL:count 1027
attr interpolationmode none
attr source rxPkFromHL
attr title "packet bytes from higher layer, count"
scalar StarLAN.router.eth[7].mac rxPkFromHL:sum(packetBytes) 472181
attr interpolationmode none
attr source rxPkFromHL
attr title "packet bytes from higher layer, sum(packetBytes)"
scalar StarLAN.router.eth[7].mac rxPausePkUnits:count 0
attr interpolationmode none
attr title "pause units received, count"
scalar StarLAN.router.eth[7].mac rxPausePkUnits:sum 0
attr interpolationmode none
attr title "pause units received, sum"
scalar StarLAN.router.eth[7].mac txPausePkUnits:count 0
attr interpolationmode none
attr title "pause units sent, count"
scalar StarLAN.router.eth[7].mac txPausePkUnits:sum 0
attr interpolationmode none
attr title "pause units sent, sum"
scalar StarLAN.router.eth[7].mac txPk:count 1027
attr interpolationmode none
attr source txPk
attr title "packets transmitted, count"
scalar StarLAN.router.eth[7].mac txPk:sum(packetBytes) 472181
attr interpolationmode none
attr source txPk
attr title "packets transmitted, sum(packetBytes)"
scalar StarLAN.router.eth[7].mac droppedPkNotForUs:count 0
attr interpolationmode none
attr source dropPkNotForUs
attr title "packets dropped/not for us, count"
scalar StarLAN.router.eth[7].mac droppedPkNotForUs:sum(packetBytes) 0
attr interpolationmode none
attr source dropPkNotForUs
attr title "packets dropped/not for us, sum(packetBytes)"
scalar StarLAN.router.eth[7].mac droppedPkBitError:count 0
attr interpolationmode none
attr source dropPkBitError
attr title "packets dropped/bit error, count"
scalar StarLAN.router.eth[7].mac droppedPkBitError:sum(packetBytes) 0
attr interpolationmode none
attr source dropPkBitError
attr title "packets dropped/bit error, sum(packetBytes)"
scalar StarLAN.router.eth[7].mac droppedPkIfaceDown:count 0
attr interpolationmode none
attr source dropPkIfaceDown
attr title "packets dropped/interface down, count"
scalar StarLAN.router.eth[7].mac droppedPkIfaceDown:sum(packetBytes) 0
attr interpolationmode none
attr source dropPkIfaceDown
attr title "packets dropped/interface down, sum(packetBytes)"
scalar StarLAN.router.eth[7].mac rxPkOk:count 1027
attr interpolationmode none
attr source rxPkOk
attr title "packets received OK, count"
scalar StarLAN.router.eth[7].mac rxPkOk:sum(packetBytes) 472181
attr interpolationmode none
attr source rxPkOk
attr title "packets received OK, sum(packetBytes)"
scalar StarLAN.router.eth[7].mac passedUpPk:count 1027
attr interpolationmode none
attr source packetSentToUpper
attr title "packets passed to higher layer, count"
scalar StarLAN.router.eth[7].mac passedUpPk:sum(packetBytes) 472181
attr interpolationmode none
attr source packetSentToUpper
attr title "packets passed to higher layer, sum(packetBytes)"
scalar StarLAN.router.eth[8].queue.pauseQueue queueLength:max nan
attr interpolationmode sample-hold
attr title "queue length, max"
scalar StarLAN.router.eth[8].queue.pauseQueue queueLength:timeavg nan
attr interpolationmode sample-hold
attr title "queue length, timeavg"
statistic StarLAN.router.eth[8].queue.pauseQueue queueingTime:histogram
field count 0
field mean nan
field stddev nan
field min nan
field max nan
field sum 0
field sqrsum 0
attr interpolationmode none
attr title "queueing time, histogram"
bin	-inf	0
bin	-0.5	0
bin	-0.46666666666667	0
bin	-0.43333333333333	0
bin	-0.4	0
bin	-0.36666666666667	0
bin	-0.33333333333333	0
bin	-0.3	0
bin	-0.26666666666667	0
bin	-0.23333333333333	0
bin	-0.2	0
bin	-0.16666666666667	0
bin	-0.13333333333333	0
bin	-0.1	0
bin	-0.066666666666667	0
bin	-0.033333333333333	0
bin	0	0
bin	0.033333333333333	0
bin	0.066666666666667	0
bin	0.1	0
bin	0.13333333333333	0
bin	0.16666666666667	0
bin	0.2	0
bin	0.23333333333333	0
bin	0.26666666666667	0
bin	0.3	0
bin	0.33333333333333	0
bin	0.36666666666667	0
bin	0.4	0
bin	0.43333333333333	0
bin	0.46666666666667	0
bin	0.5	0
scalar StarLAN.router.eth[8].queue.pauseQueue dropPk:count 0
attr interpolationmode none
attr source dropPkByQueue
attr title "dropped packets, count"
scalar StarLAN.router.eth[8].queue.pauseQueue dropPk:sum(packetBytes) 0
attr interpolationmode none
attr source dropPkByQueue
attr title "dropped packets, sum(packetBytes)"
scalar StarLAN.router.eth[8].queue.pauseQueue rcvdPk:count 0
attr interpolationmode none
attr title "received packets, count"
scalar StarLAN.router.eth[8].queue.pauseQueue rcvdPk:sum(packetBytes) 0
attr interpolationmode none
attr title "received packets, sum(packetBytes)"
scalar StarLAN.router.eth[8].queue.dataQueue queueLength:max 1
attr interpolationmode sample-hold
attr title "queue length, max"
scalar StarLAN.router.eth[8].queue.dataQueue queueLength:timeavg 0.0005834485960787
attr interpolationmode sample-hold
attr title "queue length, timeavg"
statistic StarLAN.router.eth[8].queue.dataQueue queueingTime:histogram
field count 1061
field mean 8.2471527144204e-006
field stddev 5.3243192304582e-005
field min 0
field max 0.000563282881
field sum 0.00875022903
field sqrsum 3.0770922534862e-006
attr interpolationmode none
attr title "queueing time, histogram"
bin	-inf	0
bin	-8.9052142e-005	0
bin	-7.7178523066667e-005	0
bin	-6.5304904133333e-005	0
bin	-5.34312852e-005	0
bin	-4.1557666266667e-005	0
bin	-2.9684047333333e-005	0
bin	-1.78104284e-005	0
bin	-5.9368094666667e-006	1022
bin	5.9368094666667e-006	5
bin	1.78104284e-005	1
bin	2.9684047333333e-005	1
bin	4.1557666266667e-005	0
bin	5.34312852e-005	1
bin	6.5304904133333e-005	2
bin	7.7178523066667e-005	1
bin	8.9052142e-005	0
bin	0.00010092576093333	0
bin	0.00011279937986667	2
bin	0.0001246729988	1
bin	0.00013654661773333	0
bin	0.00014842023666667	1
bin	0.0001602938556	1
bin	0.00017216747453333	6
bin	0.00018404109346667	1
bin	0.0001959147124	0
bin	0.00020778833133333	0
bin	0.00021966195026667	1
bin	0.0002315355692	1
bin	0.00024340918813333	0
bin	0.00025528280706667	1
bin	0.000267156426	13
scalar StarLAN.router.eth[8].queue.dataQueue dropPk:count 0
attr interpolationmode none
attr source dropPkByQueue
attr title "dropped packets, count"
scalar StarLAN.router.eth[8].queue.dataQueue dropPk:sum(packetBytes) 0
attr interpolationmode none
attr source dropPkByQueue
attr title "dropped packets, sum(packetBytes)"
scalar StarLAN.router.eth[8].queue.dataQueue rcvdPk:count 1061
attr interpolationmode none
attr title "received packets, count"
scalar StarLAN.router.eth[8].queue.dataQueue rcvdPk:sum(packetBytes) 661799
attr interpolationmode none
attr title "received packets, sum(packetBytes)"
scalar StarLAN.router.eth[8].mac "simulated time" 20
scalar StarLAN.router.eth[8].mac full-duplex 1
scalar StarLAN.router.eth[8].mac "frames/sec sent" 70.9
scalar StarLAN.router.eth[8].mac "frames/sec rcvd" 69.1
scalar StarLAN.router.eth[8].mac "bits/sec sent" 342332.8
scalar StarLAN.router.eth[8].mac "bits/sec rcvd" 341411.2
scalar StarLAN.router.eth[8].mac "rx channel idle (%)" 96.541664
scalar StarLAN.router.eth[8].mac "rx channel utilization (%)" 3.458336
scalar StarLAN.router.eth[8].mac "rx channel collision (%)" 0
scalar StarLAN.router.eth[8].mac collisions 0
scalar StarLAN.router.eth[8].mac backoffs 0
scalar StarLAN.router.eth[8].mac backoff:count 0
attr interpolationmode none
attr title "backoff, count"
scalar StarLAN.router.eth[8].mac collision:count 0
attr interpolationmode none
attr title "collision, count"
scalar StarLAN.router.eth[8].mac rxPkFromHL:count 1061
attr interpolationmode none
attr source rxPkFromHL
attr title "packet bytes from higher layer, count"
scalar StarLAN.router.eth[8].mac rxPkFromHL:sum(packetBytes) 661799
attr interpolationmode none
attr source rxPkFromHL
attr title "packet bytes from higher layer, sum(packetBytes)"
scalar StarLAN.router.eth[8].mac rxPausePkUnits:count 0
attr interpolationmode none
attr title "pause units received, count"
scalar StarLAN.router.eth[8].mac rxPausePkUnits:sum 0
attr interpolationmode none
attr title "pause units received, sum"
scalar StarLAN.router.eth[8].mac txPausePkUnits:count 0
attr interpolationmode none
attr title "pause units sent, count"
scalar StarLAN.router.eth[8].mac txPausePkUnits:sum 0
attr interpolationmode none
attr title "pause units sent, sum"
scalar StarLAN.router.eth[8].mac txPk:count 1061
attr interpolationmode none
attr source txPk
attr title "packets transmitted, count"
scalar StarLAN.router.eth[8].mac txPk:sum(packetBytes) 661799
attr interpolationmode none
attr source txPk
attr title "packets transmitted, sum(packetBytes)"
scalar StarLAN.router.eth[8].mac droppedPkNotForUs:count 0
attr interpolationmode none
attr source dropPkNotForUs
attr title "packets dropped/not for us, count"
scalar StarLAN.router.eth[8].mac droppedPkNotForUs:sum(packetBytes) 0
attr interpolationmode none
attr source dropPkNotForUs
attr title "packets dropped/not for us, sum(packetBytes)"
scalar StarLAN.router.eth[8].mac droppedPkBitError:count 0
attr interpolationmode none
attr source dropPkBitError
attr title "packets dropped/bit error, count"
scalar StarLAN.router.eth[8].mac droppedPkBitError:sum(packetBytes) 0
attr interpolationmode none
attr source dropPkBitError
attr title "packets dropped/bit error, sum(packetBytes)"
scalar StarLAN.router.eth[8].mac droppedPkIfaceDown:count 0
attr interpolationmode none
attr source dropPkIfaceDown
attr title "packets dropped/interface down, count"
scalar StarLAN.router.eth[8].mac droppedPkIfaceDown:sum(packetBytes) 0
attr interpolationmode none
attr source dropPkIfaceDown
attr title "packets dropped/interface down, sum(packetBytes)"
scalar StarLAN.router.eth[8].mac rxPkOk:count 1061
attr interpolationmode none
attr source rxPkOk
attr title "packets received OK, count"
scalar StarLAN.router.eth[8].mac rxPkOk:sum(packetBytes) 661799
attr interpolationmode none
attr source rxPkOk
attr title "packets received OK, sum(packetBytes)"
scalar StarLAN.router.eth[8].mac passedUpPk:count 1061
attr interpolationmode none
attr source packetSentToUpper
attr title "packets passed to higher layer, count"
scalar StarLAN.router.eth[8].mac passedUpPk:sum(packetBytes) 661799
attr interpolationmode none
attr source packetSentToUpper
attr title "packets passed to higher layer, sum(packetBytes)"
scalar StarLAN.router.eth[9].queue.pauseQueue queueLength:max nan
attr interpolationmode sample-hold
attr title "queue length, max"
scalar StarLAN.router.eth[9].queue.pauseQueue queueLength:timeavg nan
attr interpolationmode sample-hold
attr title "queue length, timeavg"
statistic StarLAN.router.eth[9].queue.pauseQueue queueingTime:histogram
field count 0
field mean nan
field stddev nan
field min nan
field max nan
field sum 0
field sqrsum 0
attr interpolationmode none
attr title "queueing time, histogram"
bin	-inf	0
bin	-0.5	0
bin	-0.46666666666667	0
bin	-0.43333333333333	0
bin	-0.4	0
bin	-0.36666666666667	0
bin	-0.33333333333333	0
bin	-0.3	0
bin	-0.26666666666667	0
bin	-0.23333333333333	0
bin	-0.2	0
bin	-0.16666666666667	0
bin	-0.13333333333333	0
bin	-0.1	0
bin	-0.066666666666667	0
bin	-0.033333333333333	0
bin	0	0
bin	0.033333333333333	0
bin	0.066666666666667	0
bin	0.1	0
bin	0.13333333333333	0
bin	0.16666666666667	0
bin	0.2	0
bin	0.23333333333333	0
bin	0.26666666666667	0
bin	0.3	0
bin	0.33333333333333	0
bin	0.36666666666667	0
bin	0.4	0
bin	0.43333333333333	0
bin	0.46666666666667	0
bin	0.5	0
scalar StarLAN.router.eth[9].queue.pauseQueue dropPk:count 0
attr interpolationmode none
attr source dropPkByQueue
attr title "dropped packets, count"
scalar StarLAN.router.eth[9].queue.pauseQueue dropPk:sum(packetBytes) 0
attr interpolationmode none
attr source dropPkByQueue
attr title "dropped packets, sum(packetBytes)"
scalar StarLAN.router.eth[9].queue.pauseQueue rcvdPk:count 0
attr interpolationmode none
attr title "received packets, count"
scalar StarLAN.router.eth[9].queue.pauseQueue rcvdPk:sum(packetBytes) 0
attr interpolationmode none
attr title "received packets, sum(packetBytes)"
scalar StarLAN.router.eth[9].queue.dataQueue queueLength:max 1
attr interpolationmode sample-hold
attr title "queue length, max"
scalar StarLAN.router.eth[9].queue.dataQueue queueLength:timeavg 0.00030331169095603
attr interpolationmode sample-hold
attr title "queue length, timeavg"
statistic StarLAN.router.eth[9].queue.dataQueue queueingTime:histogram
field count 1036
field mean 4.3868661891892e-006
field stddev 3.7862647119845e-005
field min 0
field max 0.000571379004
field sum 0.004544793372
field sqrsum 1.5036927489446e-006
attr interpolationmode none
attr title "queueing time, histogram"
bin	-inf	0
bin	-0.000245863876	0
bin	-0.00021308202586667	0
bin	-0.00018030017573333	0
bin	-0.0001475183256	0
bin	-0.00011473647546667	0
bin	-8.1954625333333e-005	0
bin	-4.91727752e-005	0
bin	-1.6390925066667e-005	1016
bin	1.6390925066667e-005	2
bin	4.91727752e-005	3
bin	8.1954625333333e-005	0
bin	0.00011473647546667	2
bin	0.0001475183256	2
bin	0.00018030017573333	2
bin	0.00021308202586667	2
bin	0.000245863876	2
bin	0.00027864572613333	1
bin	0.00031142757626667	1
bin	0.0003442094264	0
bin	0.00037699127653333	0
bin	0.00040977312666667	0
bin	0.0004425549768	0
bin	0.00047533682693333	1
bin	0.00050811867706667	0
bin	0.0005409005272	2
bin	0.00057368237733333	0
bin	0.00060646422746667	0
bin	0.0006392460776	0
bin	0.00067202792773333	0
bin	0.00070480977786667	0
bin	0.000737591628	0
scalar StarLAN.router.eth[9].queue.dataQueue dropPk:count 0
attr interpolationmode none
attr source dropPkByQueue
attr title "dropped packets, count"
scalar StarLAN.router.eth[9].queue.dataQueue dropPk:sum(packetBytes) 0
attr interpolationmode none
attr source dropPkByQueue
attr title "dropped packets, sum(packetBytes)"
scalar StarLAN.router.eth[9].queue.dataQueue rcvdPk:count 1036
attr interpolationmode none
attr title "received packets, count"
scalar StarLAN.router.eth[9].queue.dataQueue rcvdPk:sum(packetBytes) 392561
attr interpolationmode none
attr title "received packets, sum(packetBytes)"
scalar StarLAN.router.eth[9].mac "simulated time" 20
scalar StarLAN.router.eth[9].mac full-duplex 1
scalar StarLAN.router.eth[9].mac "frames/sec sent" 70.5
scalar StarLAN.router.eth[9].mac "frames/sec rcvd" 68.7
scalar StarLAN.router.eth[9].mac "bits/sec sent" 210378
scalar StarLAN.router.eth[9].mac "bits/sec rcvd" 209456.4
scalar StarLAN.router.eth[9].mac "rx channel idle (%)" 97.861468
scalar StarLAN.router.eth[9].mac "rx channel utilization (%)" 2.138532
scalar StarLAN.router.eth[9].mac "rx channel collision (%)" 0
scalar StarLAN.router.eth[9].mac collisions 0
scalar StarLAN.router.eth[9].mac backoffs 0
scalar StarLAN.router.eth[9].mac backoff:count 0
attr interpolationmode none
attr title "backoff, count"
scalar StarLAN.router.eth[9].mac collision:count 0
attr interpolationmode none
attr title "collision, count"
scalar StarLAN.router.eth[9].mac rxPkFromHL:count 1036
attr interpolationmode none
attr source rxPkFromHL
attr title "packet bytes from higher layer, count"
scalar StarLAN.router.eth[9].mac rxPkFromHL:sum(packetBytes) 392561
attr interpolationmode none
attr source rxPkFromHL
attr title "packet bytes from higher layer, sum(packetBytes)"
scalar StarLAN.router.eth[9].mac rxPausePkUnits:count 0
attr interpolationmode none
attr title "pause units received, count"
scalar StarLAN.router.eth[9].mac rxPausePkUnits:sum 0
attr interpolationmode none
attr title "pause units received, sum"
scalar StarLAN.router.eth[9].mac txPausePkUnits:count 0
attr interpolationmode none
attr title "pause units sent, count"
scalar StarLAN.router.eth[9].mac txPausePkUnits:sum 0
attr interpolationmode none
attr title "pause units sent, sum"
scalar StarLAN.router.eth[9].mac txPk:count 1036
attr interpolationmode none
attr source txPk
attr title "packets transmitted, count"
scalar StarLAN.router.eth[9].mac txPk:sum(packetBytes) 392561
attr interpolationmode none
attr source txPk
attr title "packets transmitted, sum(packetBytes)"
scalar StarLAN.router.eth[9].mac droppedPkNotForUs:count 0
attr interpolationmode none
attr source dropPkNotForUs
attr title "packets dropped/not for us, count"
scalar StarLAN.router.eth[9].mac droppedPkNotForUs:sum(packetBytes) 0
attr interpolationmode none
attr source dropPkNotForUs
attr title "packets dropped/not for us, sum(packetBytes)"
scalar StarLAN.router.eth[9].mac droppedPkBitError:count 0
attr interpolationmode none
attr source dropPkBitError
attr title "packets dropped/bit error, count"
scalar StarLAN.router.eth[9].mac droppedPkBitError:sum(packetBytes) 0
attr interpolationmode none
attr source dropPkBitError
attr title "packets dropped/bit error, sum(packetBytes)"
scalar StarLAN.router.eth[9].mac droppedPkIfaceDown:count 0
attr interpolationmode none
attr source dropPkIfaceDown
attr title "packets dropped/interface down, count"
scalar StarLAN.router.eth[9].mac droppedPkIfaceDown:sum(packetBytes) 0
attr interpolationmode none
attr source dropPkIfaceDown
attr title "packets dropped/interface down, sum(packetBytes)"
scalar StarLAN.router.eth[9].mac rxPkOk:count 1036
attr interpolationmode none
attr source rxPkOk
attr title "packets received OK, count"
scalar StarLAN.router.eth[9].mac rxPkOk:sum(packetBytes) 392561
attr interpolationmode none
attr source rxPkOk
attr title "packets received OK, sum(packetBytes)"
scalar StarLAN.router.eth[9].mac passedUpPk:count 1036
attr interpolationmode none
attr source packetSentToUpper
attr title "packets passed to higher layer, count"
scalar StarLAN.router.eth[9].mac passedUpPk:sum(packetBytes) 392561
attr interpolationmode none
attr source packetSentToUpper
attr title "packets passed to higher layer, sum(packetBytes)"

