version 2
run StarLAN10-packetsize-2-20180110-19:21:14-13360
attr configname StarLAN10-packetsize
attr datetime 20180110-19:21:14
attr experiment StarLAN10-packetsize
attr inifile StarLAN.ini
attr iterationvars $pa=128
attr iterationvarsf pa=128-
attr measurement $pa=128
attr network StarLAN
attr processid 13360
attr repetition 0
attr replication #0
attr resultdir results
attr runnumber 2
attr seedset 2
itervar pa 128
param *.numHosts 10
param **.datarate 10Mbps
param **.host[*].pingApp[*].sendInterval "truncnormal(50ms, 25ms)"
param **.host[*].pingApp[*].packetSize "truncnormal(512B, 256B)"
param **.queueType "\"DropTailQueue\""
param **.frameCapacity 10
param **.mtu 1024B
param **.host[*].numPingApps 128
param **.host[*].pingApp[*].typename "\"PingApp\""
param **.host[*].pingApp[*].count 1
param **.host[*].pingApp[*].startTime "truncnormal(200ms, 100ms)"
param **.host[*].pingApp[*].destAddr "\"*\""

scalar StarLAN.host[0].networkLayer.arp sentReply:count 0
attr title "ARP replies sent, count"
scalar StarLAN.host[0].networkLayer.arp sentReq:count 0
attr title "ARP request sent, count"
scalar StarLAN.host[0].networkLayer.arp failedARPResolution:count 0
attr title "ARP failed resolutions, count"
scalar StarLAN.host[0].networkLayer.arp completedARPResolution:count 0
attr title "ARP completed resolutions, count"
scalar StarLAN.host[0].networkLayer.arp initiatedARPResolution:count 0
attr title "ARP initiated resolutions, count"
scalar StarLAN.host[0].lo0.lo droppedPkBitError:count 0
attr interpolationmode none
attr source dropPkBitError
attr title "packets dropped/bit error, count"
scalar StarLAN.host[0].lo0.lo droppedPkBitError:sum(packetBytes) 0
attr interpolationmode none
attr source dropPkBitError
attr title "packets dropped/bit error, sum(packetBytes)"
scalar StarLAN.host[0].lo0.lo rcvdPkFromHL:count 7702
attr interpolationmode none
attr source packetReceivedFromUpper
attr title "packets received from higher layer, count"
scalar StarLAN.host[0].lo0.lo rcvdPkFromHL:sum(packetBytes) 4101746
attr interpolationmode none
attr source packetReceivedFromUpper
attr title "packets received from higher layer, sum(packetBytes)"
scalar StarLAN.host[0].lo0.lo passedUpPk:count 7702
attr interpolationmode none
attr source packetSentToUpper
attr title "packets passed to higher layer, count"
scalar StarLAN.host[0].lo0.lo passedUpPk:sum(packetBytes) 4101746
attr interpolationmode none
attr source packetSentToUpper
attr title "packets passed to higher layer, sum(packetBytes)"
scalar StarLAN.host[0].eth[0].queue.pauseQueue queueLength:max nan
attr interpolationmode sample-hold
attr title "queue length, max"
scalar StarLAN.host[0].eth[0].queue.pauseQueue queueLength:timeavg nan
attr interpolationmode sample-hold
attr title "queue length, timeavg"
statistic StarLAN.host[0].eth[0].queue.pauseQueue queueingTime:histogram
field count 0
field mean nan
field stddev nan
field min nan
field max nan
field sum 0
field sqrsum 0
attr interpolationmode none
attr title "queueing time, histogram"
bin	-inf	0
bin	-0.5	0
bin	-0.46666666666667	0
bin	-0.43333333333333	0
bin	-0.4	0
bin	-0.36666666666667	0
bin	-0.33333333333333	0
bin	-0.3	0
bin	-0.26666666666667	0
bin	-0.23333333333333	0
bin	-0.2	0
bin	-0.16666666666667	0
bin	-0.13333333333333	0
bin	-0.1	0
bin	-0.066666666666667	0
bin	-0.033333333333333	0
bin	0	0
bin	0.033333333333333	0
bin	0.066666666666667	0
bin	0.1	0
bin	0.13333333333333	0
bin	0.16666666666667	0
bin	0.2	0
bin	0.23333333333333	0
bin	0.26666666666667	0
bin	0.3	0
bin	0.33333333333333	0
bin	0.36666666666667	0
bin	0.4	0
bin	0.43333333333333	0
bin	0.46666666666667	0
bin	0.5	0
scalar StarLAN.host[0].eth[0].queue.pauseQueue dropPk:count 0
attr interpolationmode none
attr source dropPkByQueue
attr title "dropped packets, count"
scalar StarLAN.host[0].eth[0].queue.pauseQueue dropPk:sum(packetBytes) 0
attr interpolationmode none
attr source dropPkByQueue
attr title "dropped packets, sum(packetBytes)"
scalar StarLAN.host[0].eth[0].queue.pauseQueue rcvdPk:count 0
attr interpolationmode none
attr title "received packets, count"
scalar StarLAN.host[0].eth[0].queue.pauseQueue rcvdPk:sum(packetBytes) 0
attr interpolationmode none
attr title "received packets, sum(packetBytes)"
scalar StarLAN.host[0].eth[0].queue.dataQueue queueLength:max 10
attr interpolationmode sample-hold
attr title "queue length, max"
scalar StarLAN.host[0].eth[0].queue.dataQueue queueLength:timeavg 9.0858751191662
attr interpolationmode sample-hold
attr title "queue length, timeavg"
statistic StarLAN.host[0].eth[0].queue.dataQueue queueingTime:histogram
field count 31920
field mean 0.0042696102188881
field stddev 0.0006874658396017
field min 0.000269383187
field max 0.006581811087
field sum 136.28595818691
field sqrsum 0.59697313539385
attr interpolationmode none
attr title "queueing time, histogram"
bin	-inf	26
bin	0.001603114459	14
bin	0.001788080941	31
bin	0.001973047423	45
bin	0.002158013905	90
bin	0.002342980387	165
bin	0.002527946869	223
bin	0.002712913351	357
bin	0.002897879833	606
bin	0.003082846315	845
bin	0.003267812797	1298
bin	0.003452779279	1831
bin	0.003637745761	2316
bin	0.003822712243	2771
bin	0.004007678725	3289
bin	0.004192645207	3527
bin	0.004377611689	3524
bin	0.004562578171	3133
bin	0.004747544653	2576
bin	0.004932511135	2059
bin	0.005117477617	1348
bin	0.005302444099	883
bin	0.005487410581	496
bin	0.005672377063	292
bin	0.005857343545	114
bin	0.006042310027	46
bin	0.006227276509	6
bin	0.006412242991	9
bin	0.006597209473	0
bin	0.006782175955	0
bin	0.006967142437	0
bin	0.007152108919	0
scalar StarLAN.host[0].eth[0].queue.dataQueue dropPk:count 20261
attr interpolationmode none
attr source dropPkByQueue
attr title "dropped packets, count"
scalar StarLAN.host[0].eth[0].queue.dataQueue dropPk:sum(packetBytes) 11084336
attr interpolationmode none
attr source dropPkByQueue
attr title "dropped packets, sum(packetBytes)"
scalar StarLAN.host[0].eth[0].queue.dataQueue rcvdPk:count 52182
attr interpolationmode none
attr title "received packets, count"
scalar StarLAN.host[0].eth[0].queue.dataQueue rcvdPk:sum(packetBytes) 29195540
attr interpolationmode none
attr title "received packets, sum(packetBytes)"
scalar StarLAN.host[0].eth[0].mac "simulated time" 20
scalar StarLAN.host[0].eth[0].mac full-duplex 1
scalar StarLAN.host[0].eth[0].mac "frames/sec sent" 2123.65
scalar StarLAN.host[0].eth[0].mac "frames/sec rcvd" 2019.6
scalar StarLAN.host[0].eth[0].mac "bits/sec sent" 9641849.2
scalar StarLAN.host[0].eth[0].mac "bits/sec rcvd" 9275377.2
scalar StarLAN.host[0].eth[0].mac "rx channel idle (%)" 5.953684
scalar StarLAN.host[0].eth[0].mac "rx channel utilization (%)" 94.046316
scalar StarLAN.host[0].eth[0].mac rxPkFromHL:count 31920
attr interpolationmode none
attr source rxPkFromHL
attr title "packet bytes from higher layer, count"
scalar StarLAN.host[0].eth[0].mac rxPkFromHL:sum(packetBytes) 18111606
attr interpolationmode none
attr source rxPkFromHL
attr title "packet bytes from higher layer, sum(packetBytes)"
scalar StarLAN.host[0].eth[0].mac rxPausePkUnits:count 0
attr interpolationmode none
attr title "pause units received, count"
scalar StarLAN.host[0].eth[0].mac rxPausePkUnits:sum 0
attr interpolationmode none
attr title "pause units received, sum"
scalar StarLAN.host[0].eth[0].mac txPausePkUnits:count 0
attr interpolationmode none
attr title "pause units sent, count"
scalar StarLAN.host[0].eth[0].mac txPausePkUnits:sum 0
attr interpolationmode none
attr title "pause units sent, sum"
scalar StarLAN.host[0].eth[0].mac txPk:count 31920
attr interpolationmode none
attr source txPk
attr title "packets transmitted, count"
scalar StarLAN.host[0].eth[0].mac txPk:sum(packetBytes) 18111243
attr interpolationmode none
attr source txPk
attr title "packets transmitted, sum(packetBytes)"
scalar StarLAN.host[0].eth[0].mac droppedPkNotForUs:count 0
attr interpolationmode none
attr source dropPkNotForUs
attr title "packets dropped/not for us, count"
scalar StarLAN.host[0].eth[0].mac droppedPkNotForUs:sum(packetBytes) 0
attr interpolationmode none
attr source dropPkNotForUs
attr title "packets dropped/not for us, sum(packetBytes)"
scalar StarLAN.host[0].eth[0].mac droppedPkBitError:count 0
attr interpolationmode none
attr source dropPkBitError
attr title "packets dropped/bit error, count"
scalar StarLAN.host[0].eth[0].mac droppedPkBitError:sum(packetBytes) 0
attr interpolationmode none
attr source dropPkBitError
attr title "packets dropped/bit error, sum(packetBytes)"
scalar StarLAN.host[0].eth[0].mac droppedPkIfaceDown:count 0
attr interpolationmode none
attr source dropPkIfaceDown
attr title "packets dropped/interface down, count"
scalar StarLAN.host[0].eth[0].mac droppedPkIfaceDown:sum(packetBytes) 0
attr interpolationmode none
attr source dropPkIfaceDown
attr title "packets dropped/interface down, sum(packetBytes)"
scalar StarLAN.host[0].eth[0].mac rxPkOk:count 30324
attr interpolationmode none
attr source rxPkOk
attr title "packets received OK, count"
scalar StarLAN.host[0].eth[0].mac rxPkOk:sum(packetBytes) 17410334
attr interpolationmode none
attr source rxPkOk
attr title "packets received OK, sum(packetBytes)"
scalar StarLAN.host[0].eth[0].mac passedUpPk:count 30324
attr interpolationmode none
attr source packetSentToUpper
attr title "packets passed to higher layer, count"
scalar StarLAN.host[0].eth[0].mac passedUpPk:sum(packetBytes) 17410334
attr interpolationmode none
attr source packetSentToUpper
attr title "packets passed to higher layer, sum(packetBytes)"
scalar StarLAN.host[0].eth[0].encap pauseSent:count 0
attr title "pause sent, count"
scalar StarLAN.host[0].eth[0].encap pauseSent:sum 0
attr title "pause sent, sum"
scalar StarLAN.host[0].eth[0].encap decapPk:count 30324
attr interpolationmode none
attr source decapPk
attr title "packets decapsulated, count"
scalar StarLAN.host[0].eth[0].encap decapPk:sum(packetBytes) 16862831
attr interpolationmode none
attr source decapPk
attr title "packets decapsulated, sum(packetBytes)"
scalar StarLAN.host[0].eth[0].encap encapPk:count 52182
attr interpolationmode none
attr source encapPk
attr title "packets encapsulated, count"
scalar StarLAN.host[0].eth[0].encap encapPk:sum(packetBytes) 28248921
attr interpolationmode none
attr source encapPk
attr title "packets encapsulated, sum(packetBytes)"
scalar StarLAN.host[0].pingApp[0] "Pings sent" 397
scalar StarLAN.host[0].pingApp[0] "ping loss rate (%)" 57.430730478589
scalar StarLAN.host[0].pingApp[0] "ping out-of-order rate (%)" 0
scalar StarLAN.host[0].pingApp[0] pingRxSeq:count 125
attr interpolationmode none
attr title "ping rx seq, count"
scalar StarLAN.host[0].pingApp[0] pingTxSeq:count 303
attr interpolationmode none
attr title "ping tx seq, count"
scalar StarLAN.host[0].pingApp[0] numOutOfOrderArrivals:last nan
attr interpolationmode none
attr title "ping out-of-order arrivals, last"
scalar StarLAN.host[0].pingApp[0] numLost:last 227
attr interpolationmode none
attr title "pings lost, last"
scalar StarLAN.host[0].pingApp[0] rtt:mean 0.015580133782317
attr interpolationmode none
attr title "ping round-trip time, mean"
attr unit s
scalar StarLAN.host[0].pingApp[1] "Pings sent" 384
scalar StarLAN.host[0].pingApp[1] "ping loss rate (%)" 51.822916666667
scalar StarLAN.host[0].pingApp[1] "ping out-of-order rate (%)" 0
scalar StarLAN.host[0].pingApp[1] pingRxSeq:count 139
attr interpolationmode none
attr title "ping rx seq, count"
scalar StarLAN.host[0].pingApp[1] pingTxSeq:count 289
attr interpolationmode none
attr title "ping tx seq, count"
scalar StarLAN.host[0].pingApp[1] numOutOfOrderArrivals:last nan
attr interpolationmode none
attr title "ping out-of-order arrivals, last"
scalar StarLAN.host[0].pingApp[1] numLost:last 199
attr interpolationmode none
attr title "pings lost, last"
scalar StarLAN.host[0].pingApp[1] rtt:mean 0.015526420356077
attr interpolationmode none
attr title "ping round-trip time, mean"
attr unit s
scalar StarLAN.host[0].pingApp[2] "Pings sent" 377
scalar StarLAN.host[0].pingApp[2] "ping loss rate (%)" 56.763925729443
scalar StarLAN.host[0].pingApp[2] "ping out-of-order rate (%)" 0.26525198938992
scalar StarLAN.host[0].pingApp[2] pingRxSeq:count 126
attr interpolationmode none
attr title "ping rx seq, count"
scalar StarLAN.host[0].pingApp[2] pingTxSeq:count 288
attr interpolationmode none
attr title "ping tx seq, count"
scalar StarLAN.host[0].pingApp[2] numOutOfOrderArrivals:last 1
attr interpolationmode none
attr title "ping out-of-order arrivals, last"
scalar StarLAN.host[0].pingApp[2] numLost:last 214
attr interpolationmode none
attr title "pings lost, last"
scalar StarLAN.host[0].pingApp[2] rtt:mean 0.014560837216141
attr interpolationmode none
attr title "ping round-trip time, mean"
attr unit s
scalar StarLAN.host[0].pingApp[3] "Pings sent" 360
scalar StarLAN.host[0].pingApp[3] "ping loss rate (%)" 59.444444444444
scalar StarLAN.host[0].pingApp[3] "ping out-of-order rate (%)" 0.27777777777778
scalar StarLAN.host[0].pingApp[3] pingRxSeq:count 110
attr interpolationmode none
attr title "ping rx seq, count"
scalar StarLAN.host[0].pingApp[3] pingTxSeq:count 273
attr interpolationmode none
attr title "ping tx seq, count"
scalar StarLAN.host[0].pingApp[3] numOutOfOrderArrivals:last 1
attr interpolationmode none
attr title "ping out-of-order arrivals, last"
scalar StarLAN.host[0].pingApp[3] numLost:last 209
attr interpolationmode none
attr title "pings lost, last"
scalar StarLAN.host[0].pingApp[3] rtt:mean 0.015148888611838
attr interpolationmode none
attr title "ping round-trip time, mean"
attr unit s
scalar StarLAN.host[0].pingApp[4] "Pings sent" 395
scalar StarLAN.host[0].pingApp[4] "ping loss rate (%)" 62.025316455696
scalar StarLAN.host[0].pingApp[4] "ping out-of-order rate (%)" 0.50632911392405
scalar StarLAN.host[0].pingApp[4] pingRxSeq:count 114
attr interpolationmode none
attr title "ping rx seq, count"
scalar StarLAN.host[0].pingApp[4] pingTxSeq:count 302
attr interpolationmode none
attr title "ping tx seq, count"
scalar StarLAN.host[0].pingApp[4] numOutOfOrderArrivals:last 2
attr interpolationmode none
attr title "ping out-of-order arrivals, last"
scalar StarLAN.host[0].pingApp[4] numLost:last 241
attr interpolationmode none
attr title "pings lost, last"
scalar StarLAN.host[0].pingApp[4] rtt:mean 0.014298644910872
attr interpolationmode none
attr title "ping round-trip time, mean"
attr unit s
scalar StarLAN.host[0].pingApp[5] "Pings sent" 394
scalar StarLAN.host[0].pingApp[5] "ping loss rate (%)" 55.837563451777
scalar StarLAN.host[0].pingApp[5] "ping out-of-order rate (%)" 0.50761421319797
scalar StarLAN.host[0].pingApp[5] pingRxSeq:count 136
attr interpolationmode none
attr title "ping rx seq, count"
scalar StarLAN.host[0].pingApp[5] pingTxSeq:count 294
attr interpolationmode none
attr title "ping tx seq, count"
scalar StarLAN.host[0].pingApp[5] numOutOfOrderArrivals:last 2
attr interpolationmode none
attr title "ping out-of-order arrivals, last"
scalar StarLAN.host[0].pingApp[5] numLost:last 219
attr interpolationmode none
attr title "pings lost, last"
scalar StarLAN.host[0].pingApp[5] rtt:mean 0.015949975135854
attr interpolationmode none
attr title "ping round-trip time, mean"
attr unit s
scalar StarLAN.host[0].pingApp[6] "Pings sent" 384
scalar StarLAN.host[0].pingApp[6] "ping loss rate (%)" 60.9375
scalar StarLAN.host[0].pingApp[6] "ping out-of-order rate (%)" 0.26041666666667
scalar StarLAN.host[0].pingApp[6] pingRxSeq:count 114
attr interpolationmode none
attr title "ping rx seq, count"
scalar StarLAN.host[0].pingApp[6] pingTxSeq:count 291
attr interpolationmode none
attr title "ping tx seq, count"
scalar StarLAN.host[0].pingApp[6] numOutOfOrderArrivals:last 1
attr interpolationmode none
attr title "ping out-of-order arrivals, last"
scalar StarLAN.host[0].pingApp[6] numLost:last 234
attr interpolationmode none
attr title "pings lost, last"
scalar StarLAN.host[0].pingApp[6] rtt:mean 0.014510134049447
attr interpolationmode none
attr title "ping round-trip time, mean"
attr unit s
scalar StarLAN.host[0].pingApp[7] "Pings sent" 405
scalar StarLAN.host[0].pingApp[7] "ping loss rate (%)" 58.271604938272
scalar StarLAN.host[0].pingApp[7] "ping out-of-order rate (%)" 0
scalar StarLAN.host[0].pingApp[7] pingRxSeq:count 138
attr interpolationmode none
attr title "ping rx seq, count"
scalar StarLAN.host[0].pingApp[7] pingTxSeq:count 306
attr interpolationmode none
attr title "ping tx seq, count"
scalar StarLAN.host[0].pingApp[7] numOutOfOrderArrivals:last nan
attr interpolationmode none
attr title "ping out-of-order arrivals, last"
scalar StarLAN.host[0].pingApp[7] numLost:last 236
attr interpolationmode none
attr title "pings lost, last"
scalar StarLAN.host[0].pingApp[7] rtt:mean 0.014773601765058
attr interpolationmode none
attr title "ping round-trip time, mean"
attr unit s
scalar StarLAN.host[0].pingApp[8] "Pings sent" 404
scalar StarLAN.host[0].pingApp[8] "ping loss rate (%)" 64.356435643564
scalar StarLAN.host[0].pingApp[8] "ping out-of-order rate (%)" 0
scalar StarLAN.host[0].pingApp[8] pingRxSeq:count 103
attr interpolationmode none
attr title "ping rx seq, count"
scalar StarLAN.host[0].pingApp[8] pingTxSeq:count 303
attr interpolationmode none
attr title "ping tx seq, count"
scalar StarLAN.host[0].pingApp[8] numOutOfOrderArrivals:last nan
attr interpolationmode none
attr title "ping out-of-order arrivals, last"
scalar StarLAN.host[0].pingApp[8] numLost:last 257
attr interpolationmode none
attr title "pings lost, last"
scalar StarLAN.host[0].pingApp[8] rtt:mean 0.013392975435812
attr interpolationmode none
attr title "ping round-trip time, mean"
attr unit s
scalar StarLAN.host[0].pingApp[9] "Pings sent" 394
scalar StarLAN.host[0].pingApp[9] "ping loss rate (%)" 56.091370558376
scalar StarLAN.host[0].pingApp[9] "ping out-of-order rate (%)" 0
scalar StarLAN.host[0].pingApp[9] pingRxSeq:count 131
attr interpolationmode none
attr title "ping rx seq, count"
scalar StarLAN.host[0].pingApp[9] pingTxSeq:count 298
attr interpolationmode none
attr title "ping tx seq, count"
scalar StarLAN.host[0].pingApp[9] numOutOfOrderArrivals:last nan
attr interpolationmode none
attr title "ping out-of-order arrivals, last"
scalar StarLAN.host[0].pingApp[9] numLost:last 220
attr interpolationmode none
attr title "pings lost, last"
scalar StarLAN.host[0].pingApp[9] rtt:mean 0.015380918047031
attr interpolationmode none
attr title "ping round-trip time, mean"
attr unit s
scalar StarLAN.host[0].pingApp[10] "Pings sent" 375
scalar StarLAN.host[0].pingApp[10] "ping loss rate (%)" 63.2
scalar StarLAN.host[0].pingApp[10] "ping out-of-order rate (%)" 0
scalar StarLAN.host[0].pingApp[10] pingRxSeq:count 101
attr interpolationmode none
attr title "ping rx seq, count"
scalar StarLAN.host[0].pingApp[10] pingTxSeq:count 279
attr interpolationmode none
attr title "ping tx seq, count"
scalar StarLAN.host[0].pingApp[10] numOutOfOrderArrivals:last nan
attr interpolationmode none
attr title "ping out-of-order arrivals, last"
scalar StarLAN.host[0].pingApp[10] numLost:last 237
attr interpolationmode none
attr title "pings lost, last"
scalar StarLAN.host[0].pingApp[10] rtt:mean 0.014541105048959
attr interpolationmode none
attr title "ping round-trip time, mean"
attr unit s
scalar StarLAN.host[0].pingApp[11] "Pings sent" 382
scalar StarLAN.host[0].pingApp[11] "ping loss rate (%)" 60.994764397906
scalar StarLAN.host[0].pingApp[11] "ping out-of-order rate (%)" 0.26178010471204
scalar StarLAN.host[0].pingApp[11] pingRxSeq:count 107
attr interpolationmode none
attr title "ping rx seq, count"
scalar StarLAN.host[0].pingApp[11] pingTxSeq:count 292
attr interpolationmode none
attr title "ping tx seq, count"
scalar StarLAN.host[0].pingApp[11] numOutOfOrderArrivals:last 1
attr interpolationmode none
attr title "ping out-of-order arrivals, last"
scalar StarLAN.host[0].pingApp[11] numLost:last 231
attr interpolationmode none
attr title "pings lost, last"
scalar StarLAN.host[0].pingApp[11] rtt:mean 0.016179283096556
attr interpolationmode none
attr title "ping round-trip time, mean"
attr unit s
scalar StarLAN.host[0].pingApp[12] "Pings sent" 381
scalar StarLAN.host[0].pingApp[12] "ping loss rate (%)" 60.10498687664
scalar StarLAN.host[0].pingApp[12] "ping out-of-order rate (%)" 0.26246719160105
scalar StarLAN.host[0].pingApp[12] pingRxSeq:count 110
attr interpolationmode none
attr title "ping rx seq, count"
scalar StarLAN.host[0].pingApp[12] pingTxSeq:count 292
attr interpolationmode none
attr title "ping tx seq, count"
scalar StarLAN.host[0].pingApp[12] numOutOfOrderArrivals:last 1
attr interpolationmode none
attr title "ping out-of-order arrivals, last"
scalar StarLAN.host[0].pingApp[12] numLost:last 227
attr interpolationmode none
attr title "pings lost, last"
scalar StarLAN.host[0].pingApp[12] rtt:mean 0.014679257905211
attr interpolationmode none
attr title "ping round-trip time, mean"
attr unit s
scalar StarLAN.host[0].pingApp[13] "Pings sent" 388
scalar StarLAN.host[0].pingApp[13] "ping loss rate (%)" 56.958762886598
scalar StarLAN.host[0].pingApp[13] "ping out-of-order rate (%)" 0
scalar StarLAN.host[0].pingApp[13] pingRxSeq:count 123
attr interpolationmode none
attr title "ping rx seq, count"
scalar StarLAN.host[0].pingApp[13] pingTxSeq:count 292
attr interpolationmode none
attr title "ping tx seq, count"
scalar StarLAN.host[0].pingApp[13] numOutOfOrderArrivals:last nan
attr interpolationmode none
attr title "ping out-of-order arrivals, last"
scalar StarLAN.host[0].pingApp[13] numLost:last 221
attr interpolationmode none
attr title "pings lost, last"
scalar StarLAN.host[0].pingApp[13] rtt:mean 0.01476766140715
attr interpolationmode none
attr title "ping round-trip time, mean"
attr unit s
scalar StarLAN.host[0].pingApp[14] "Pings sent" 388
scalar StarLAN.host[0].pingApp[14] "ping loss rate (%)" 57.216494845361
scalar StarLAN.host[0].pingApp[14] "ping out-of-order rate (%)" 0
scalar StarLAN.host[0].pingApp[14] pingRxSeq:count 123
attr interpolationmode none
attr title "ping rx seq, count"
scalar StarLAN.host[0].pingApp[14] pingTxSeq:count 287
attr interpolationmode none
attr title "ping tx seq, count"
scalar StarLAN.host[0].pingApp[14] numOutOfOrderArrivals:last nan
attr interpolationmode none
attr title "ping out-of-order arrivals, last"
scalar StarLAN.host[0].pingApp[14] numLost:last 222
attr interpolationmode none
attr title "pings lost, last"
scalar StarLAN.host[0].pingApp[14] rtt:mean 0.014636873703179
attr interpolationmode none
attr title "ping round-trip time, mean"
attr unit s
scalar StarLAN.host[0].pingApp[15] "Pings sent" 389
scalar StarLAN.host[0].pingApp[15] "ping loss rate (%)" 60.411311053985
scalar StarLAN.host[0].pingApp[15] "ping out-of-order rate (%)" 0
scalar StarLAN.host[0].pingApp[15] pingRxSeq:count 113
attr interpolationmode none
attr title "ping rx seq, count"
scalar StarLAN.host[0].pingApp[15] pingTxSeq:count 287
attr interpolationmode none
attr title "ping tx seq, count"
scalar StarLAN.host[0].pingApp[15] numOutOfOrderArrivals:last nan
attr interpolationmode none
attr title "ping out-of-order arrivals, last"
scalar StarLAN.host[0].pingApp[15] numLost:last 235
attr interpolationmode none
attr title "pings lost, last"
scalar StarLAN.host[0].pingApp[15] rtt:mean 0.014470680575074
attr interpolationmode none
attr title "ping round-trip time, mean"
attr unit s
scalar StarLAN.host[0].pingApp[16] "Pings sent" 384
scalar StarLAN.host[0].pingApp[16] "ping loss rate (%)" 61.71875
scalar StarLAN.host[0].pingApp[16] "ping out-of-order rate (%)" 0.52083333333333
scalar StarLAN.host[0].pingApp[16] pingRxSeq:count 114
attr interpolationmode none
attr title "ping rx seq, count"
scalar StarLAN.host[0].pingApp[16] pingTxSeq:count 298
attr interpolationmode none
attr title "ping tx seq, count"
scalar StarLAN.host[0].pingApp[16] numOutOfOrderArrivals:last 2
attr interpolationmode none
attr title "ping out-of-order arrivals, last"
scalar StarLAN.host[0].pingApp[16] numLost:last 236
attr interpolationmode none
attr title "pings lost, last"
scalar StarLAN.host[0].pingApp[16] rtt:mean 0.014447183546099
attr interpolationmode none
attr title "ping round-trip time, mean"
attr unit s
scalar StarLAN.host[0].pingApp[17] "Pings sent" 382
scalar StarLAN.host[0].pingApp[17] "ping loss rate (%)" 65.706806282723
scalar StarLAN.host[0].pingApp[17] "ping out-of-order rate (%)" 0
scalar StarLAN.host[0].pingApp[17] pingRxSeq:count 94
attr interpolationmode none
attr title "ping rx seq, count"
scalar StarLAN.host[0].pingApp[17] pingTxSeq:count 289
attr interpolationmode none
attr title "ping tx seq, count"
scalar StarLAN.host[0].pingApp[17] numOutOfOrderArrivals:last nan
attr interpolationmode none
attr title "ping out-of-order arrivals, last"
scalar StarLAN.host[0].pingApp[17] numLost:last 248
attr interpolationmode none
attr title "pings lost, last"
scalar StarLAN.host[0].pingApp[17] rtt:mean 0.014516091720338
attr interpolationmode none
attr title "ping round-trip time, mean"
attr unit s
scalar StarLAN.host[0].pingApp[18] "Pings sent" 381
scalar StarLAN.host[0].pingApp[18] "ping loss rate (%)" 54.593175853018
scalar StarLAN.host[0].pingApp[18] "ping out-of-order rate (%)" 0.26246719160105
scalar StarLAN.host[0].pingApp[18] pingRxSeq:count 136
attr interpolationmode none
attr title "ping rx seq, count"
scalar StarLAN.host[0].pingApp[18] pingTxSeq:count 293
attr interpolationmode none
attr title "ping tx seq, count"
scalar StarLAN.host[0].pingApp[18] numOutOfOrderArrivals:last nan
attr interpolationmode none
attr title "ping out-of-order arrivals, last"
scalar StarLAN.host[0].pingApp[18] numLost:last 208
attr interpolationmode none
attr title "pings lost, last"
scalar StarLAN.host[0].pingApp[18] rtt:mean 0.01644191748559
attr interpolationmode none
attr title "ping round-trip time, mean"
attr unit s
scalar StarLAN.host[0].pingApp[19] "Pings sent" 394
scalar StarLAN.host[0].pingApp[19] "ping loss rate (%)" 58.883248730964
scalar StarLAN.host[0].pingApp[19] "ping out-of-order rate (%)" 0.25380710659898
scalar StarLAN.host[0].pingApp[19] pingRxSeq:count 128
attr interpolationmode none
attr title "ping rx seq, count"
scalar StarLAN.host[0].pingApp[19] pingTxSeq:count 307
attr interpolationmode none
attr title "ping tx seq, count"
scalar StarLAN.host[0].pingApp[19] numOutOfOrderArrivals:last 1
attr interpolationmode none
attr title "ping out-of-order arrivals, last"
scalar StarLAN.host[0].pingApp[19] numLost:last 231
attr interpolationmode none
attr title "pings lost, last"
scalar StarLAN.host[0].pingApp[19] rtt:mean 0.015561673213109
attr interpolationmode none
attr title "ping round-trip time, mean"
attr unit s
scalar StarLAN.host[0].pingApp[20] "Pings sent" 387
scalar StarLAN.host[0].pingApp[20] "ping loss rate (%)" 56.072351421189
scalar StarLAN.host[0].pingApp[20] "ping out-of-order rate (%)" 0
scalar StarLAN.host[0].pingApp[20] pingRxSeq:count 127
attr interpolationmode none
attr title "ping rx seq, count"
scalar StarLAN.host[0].pingApp[20] pingTxSeq:count 296
attr interpolationmode none
attr title "ping tx seq, count"
scalar StarLAN.host[0].pingApp[20] numOutOfOrderArrivals:last nan
attr interpolationmode none
attr title "ping out-of-order arrivals, last"
scalar StarLAN.host[0].pingApp[20] numLost:last 217
attr interpolationmode none
attr title "pings lost, last"
scalar StarLAN.host[0].pingApp[20] rtt:mean 0.01495420044663
attr interpolationmode none
attr title "ping round-trip time, mean"
attr unit s
scalar StarLAN.host[0].pingApp[21] "Pings sent" 385
scalar StarLAN.host[0].pingApp[21] "ping loss rate (%)" 57.402597402597
scalar StarLAN.host[0].pingApp[21] "ping out-of-order rate (%)" 0
scalar StarLAN.host[0].pingApp[21] pingRxSeq:count 118
attr interpolationmode none
attr title "ping rx seq, count"
scalar StarLAN.host[0].pingApp[21] pingTxSeq:count 287
attr interpolationmode none
attr title "ping tx seq, count"
scalar StarLAN.host[0].pingApp[21] numOutOfOrderArrivals:last nan
attr interpolationmode none
attr title "ping out-of-order arrivals, last"
scalar StarLAN.host[0].pingApp[21] numLost:last 220
attr interpolationmode none
attr title "pings lost, last"
scalar StarLAN.host[0].pingApp[21] rtt:mean 0.014679760287043
attr interpolationmode none
attr title "ping round-trip time, mean"
attr unit s
scalar StarLAN.host[0].pingApp[22] "Pings sent" 389
scalar StarLAN.host[0].pingApp[22] "ping loss rate (%)" 57.840616966581
scalar StarLAN.host[0].pingApp[22] "ping out-of-order rate (%)" 0
scalar StarLAN.host[0].pingApp[22] pingRxSeq:count 123
attr interpolationmode none
attr title "ping rx seq, count"
scalar StarLAN.host[0].pingApp[22] pingTxSeq:count 296
attr interpolationmode none
attr title "ping tx seq, count"
scalar StarLAN.host[0].pingApp[22] numOutOfOrderArrivals:last nan
attr interpolationmode none
attr title "ping out-of-order arrivals, last"
scalar StarLAN.host[0].pingApp[22] numLost:last 225
attr interpolationmode none
attr title "pings lost, last"
scalar StarLAN.host[0].pingApp[22] rtt:mean 0.015322118897634
attr interpolationmode none
attr title "ping round-trip time, mean"
attr unit s
scalar StarLAN.host[0].pingApp[23] "Pings sent" 384
scalar StarLAN.host[0].pingApp[23] "ping loss rate (%)" 69.270833333333
scalar StarLAN.host[0].pingApp[23] "ping out-of-order rate (%)" 0.26041666666667
scalar StarLAN.host[0].pingApp[23] pingRxSeq:count 88
attr interpolationmode none
attr title "ping rx seq, count"
scalar StarLAN.host[0].pingApp[23] pingTxSeq:count 288
attr interpolationmode none
attr title "ping tx seq, count"
scalar StarLAN.host[0].pingApp[23] numOutOfOrderArrivals:last 1
attr interpolationmode none
attr title "ping out-of-order arrivals, last"
scalar StarLAN.host[0].pingApp[23] numLost:last 266
attr interpolationmode none
attr title "pings lost, last"
scalar StarLAN.host[0].pingApp[23] rtt:mean 0.013296623213745
attr interpolationmode none
attr title "ping round-trip time, mean"
attr unit s
scalar StarLAN.host[0].pingApp[24] "Pings sent" 382
scalar StarLAN.host[0].pingApp[24] "ping loss rate (%)" 61.51832460733
scalar StarLAN.host[0].pingApp[24] "ping out-of-order rate (%)" 0.26178010471204
scalar StarLAN.host[0].pingApp[24] pingRxSeq:count 108
attr interpolationmode none
attr title "ping rx seq, count"
scalar StarLAN.host[0].pingApp[24] pingTxSeq:count 293
attr interpolationmode none
attr title "ping tx seq, count"
scalar StarLAN.host[0].pingApp[24] numOutOfOrderArrivals:last nan
attr interpolationmode none
attr title "ping out-of-order arrivals, last"
scalar StarLAN.host[0].pingApp[24] numLost:last 235
attr interpolationmode none
attr title "pings lost, last"
scalar StarLAN.host[0].pingApp[24] rtt:mean 0.015676657073544
attr interpolationmode none
attr title "ping round-trip time, mean"
attr unit s
scalar StarLAN.host[0].pingApp[25] "Pings sent" 386
scalar StarLAN.host[0].pingApp[25] "ping loss rate (%)" 55.440414507772
scalar StarLAN.host[0].pingApp[25] "ping out-of-order rate (%)" 0
scalar StarLAN.host[0].pingApp[25] pingRxSeq:count 125
attr interpolationmode none
attr title "ping rx seq, count"
scalar StarLAN.host[0].pingApp[25] pingTxSeq:count 289
attr interpolationmode none
attr title "ping tx seq, count"
scalar StarLAN.host[0].pingApp[25] numOutOfOrderArrivals:last nan
attr interpolationmode none
attr title "ping out-of-order arrivals, last"
scalar StarLAN.host[0].pingApp[25] numLost:last 213
attr interpolationmode none
attr title "pings lost, last"
scalar StarLAN.host[0].pingApp[25] rtt:mean 0.015130830756316
attr interpolationmode none
attr title "ping round-trip time, mean"
attr unit s
scalar StarLAN.host[0].pingApp[26] "Pings sent" 376
scalar StarLAN.host[0].pingApp[26] "ping loss rate (%)" 65.159574468085
scalar StarLAN.host[0].pingApp[26] "ping out-of-order rate (%)" 0.26595744680851
scalar StarLAN.host[0].pingApp[26] pingRxSeq:count 100
attr interpolationmode none
attr title "ping rx seq, count"
scalar StarLAN.host[0].pingApp[26] pingTxSeq:count 283
attr interpolationmode none
attr title "ping tx seq, count"
scalar StarLAN.host[0].pingApp[26] numOutOfOrderArrivals:last nan
attr interpolationmode none
attr title "ping out-of-order arrivals, last"
scalar StarLAN.host[0].pingApp[26] numLost:last 245
attr interpolationmode none
attr title "pings lost, last"
scalar StarLAN.host[0].pingApp[26] rtt:mean 0.013683015400676
attr interpolationmode none
attr title "ping round-trip time, mean"
attr unit s
scalar StarLAN.host[0].pingApp[27] "Pings sent" 384
scalar StarLAN.host[0].pingApp[27] "ping loss rate (%)" 61.979166666667
scalar StarLAN.host[0].pingApp[27] "ping out-of-order rate (%)" 0.26041666666667
scalar StarLAN.host[0].pingApp[27] pingRxSeq:count 119
attr interpolationmode none
attr title "ping rx seq, count"
scalar StarLAN.host[0].pingApp[27] pingTxSeq:count 298
attr interpolationmode none
attr title "ping tx seq, count"
scalar StarLAN.host[0].pingApp[27] numOutOfOrderArrivals:last 1
attr interpolationmode none
attr title "ping out-of-order arrivals, last"
scalar StarLAN.host[0].pingApp[27] numLost:last 237
attr interpolationmode none
attr title "pings lost, last"
scalar StarLAN.host[0].pingApp[27] rtt:mean 0.01510800587
attr interpolationmode none
attr title "ping round-trip time, mean"
attr unit s
scalar StarLAN.host[0].pingApp[28] "Pings sent" 365
scalar StarLAN.host[0].pingApp[28] "ping loss rate (%)" 53.150684931507
scalar StarLAN.host[0].pingApp[28] "ping out-of-order rate (%)" 0
scalar StarLAN.host[0].pingApp[28] pingRxSeq:count 131
attr interpolationmode none
attr title "ping rx seq, count"
scalar StarLAN.host[0].pingApp[28] pingTxSeq:count 279
attr interpolationmode none
attr title "ping tx seq, count"
scalar StarLAN.host[0].pingApp[28] numOutOfOrderArrivals:last nan
attr interpolationmode none
attr title "ping out-of-order arrivals, last"
scalar StarLAN.host[0].pingApp[28] numLost:last 193
attr interpolationmode none
attr title "pings lost, last"
scalar StarLAN.host[0].pingApp[28] rtt:mean 0.015583886604905
attr interpolationmode none
attr title "ping round-trip time, mean"
attr unit s
scalar StarLAN.host[0].pingApp[29] "Pings sent" 386
scalar StarLAN.host[0].pingApp[29] "ping loss rate (%)" 61.139896373057
scalar StarLAN.host[0].pingApp[29] "ping out-of-order rate (%)" 0.25906735751295
scalar StarLAN.host[0].pingApp[29] pingRxSeq:count 116
attr interpolationmode none
attr title "ping rx seq, count"
scalar StarLAN.host[0].pingApp[29] pingTxSeq:count 294
attr interpolationmode none
attr title "ping tx seq, count"
scalar StarLAN.host[0].pingApp[29] numOutOfOrderArrivals:last 1
attr interpolationmode none
attr title "ping out-of-order arrivals, last"
scalar StarLAN.host[0].pingApp[29] numLost:last 232
attr interpolationmode none
attr title "pings lost, last"
scalar StarLAN.host[0].pingApp[29] rtt:mean 0.014769289819563
attr interpolationmode none
attr title "ping round-trip time, mean"
attr unit s
scalar StarLAN.host[0].pingApp[30] "Pings sent" 398
scalar StarLAN.host[0].pingApp[30] "ping loss rate (%)" 63.56783919598
scalar StarLAN.host[0].pingApp[30] "ping out-of-order rate (%)" 0.25125628140704
scalar StarLAN.host[0].pingApp[30] pingRxSeq:count 116
attr interpolationmode none
attr title "ping rx seq, count"
scalar StarLAN.host[0].pingApp[30] pingTxSeq:count 305
attr interpolationmode none
attr title "ping tx seq, count"
scalar StarLAN.host[0].pingApp[30] numOutOfOrderArrivals:last 1
attr interpolationmode none
attr title "ping out-of-order arrivals, last"
scalar StarLAN.host[0].pingApp[30] numLost:last 253
attr interpolationmode none
attr title "pings lost, last"
scalar StarLAN.host[0].pingApp[30] rtt:mean 0.014459370330324
attr interpolationmode none
attr title "ping round-trip time, mean"
attr unit s
scalar StarLAN.host[0].pingApp[31] "Pings sent" 374
scalar StarLAN.host[0].pingApp[31] "ping loss rate (%)" 60.160427807487
scalar StarLAN.host[0].pingApp[31] "ping out-of-order rate (%)" 0
scalar StarLAN.host[0].pingApp[31] pingRxSeq:count 119
attr interpolationmode none
attr title "ping rx seq, count"
scalar StarLAN.host[0].pingApp[31] pingTxSeq:count 282
attr interpolationmode none
attr title "ping tx seq, count"
scalar StarLAN.host[0].pingApp[31] numOutOfOrderArrivals:last nan
attr interpolationmode none
attr title "ping out-of-order arrivals, last"
scalar StarLAN.host[0].pingApp[31] numLost:last 224
attr interpolationmode none
attr title "pings lost, last"
scalar StarLAN.host[0].pingApp[31] rtt:mean 0.014515426382305
attr interpolationmode none
attr title "ping round-trip time, mean"
attr unit s
scalar StarLAN.host[0].pingApp[32] "Pings sent" 376
scalar StarLAN.host[0].pingApp[32] "ping loss rate (%)" 52.659574468085
scalar StarLAN.host[0].pingApp[32] "ping out-of-order rate (%)" 0.26595744680851
scalar StarLAN.host[0].pingApp[32] pingRxSeq:count 140
attr interpolationmode none
attr title "ping rx seq, count"
scalar StarLAN.host[0].pingApp[32] pingTxSeq:count 291
attr interpolationmode none
attr title "ping tx seq, count"
scalar StarLAN.host[0].pingApp[32] numOutOfOrderArrivals:last 1
attr interpolationmode none
attr title "ping out-of-order arrivals, last"
scalar StarLAN.host[0].pingApp[32] numLost:last 197
attr interpolationmode none
attr title "pings lost, last"
scalar StarLAN.host[0].pingApp[32] rtt:mean 0.014996350283037
attr interpolationmode none
attr title "ping round-trip time, mean"
attr unit s
scalar StarLAN.host[0].pingApp[33] "Pings sent" 389
scalar StarLAN.host[0].pingApp[33] "ping loss rate (%)" 60.154241645244
scalar StarLAN.host[0].pingApp[33] "ping out-of-order rate (%)" 0.25706940874036
scalar StarLAN.host[0].pingApp[33] pingRxSeq:count 126
attr interpolationmode none
attr title "ping rx seq, count"
scalar StarLAN.host[0].pingApp[33] pingTxSeq:count 294
attr interpolationmode none
attr title "ping tx seq, count"
scalar StarLAN.host[0].pingApp[33] numOutOfOrderArrivals:last 1
attr interpolationmode none
attr title "ping out-of-order arrivals, last"
scalar StarLAN.host[0].pingApp[33] numLost:last 234
attr interpolationmode none
attr title "pings lost, last"
scalar StarLAN.host[0].pingApp[33] rtt:mean 0.014746556296824
attr interpolationmode none
attr title "ping round-trip time, mean"
attr unit s
scalar StarLAN.host[0].pingApp[34] "Pings sent" 388
scalar StarLAN.host[0].pingApp[34] "ping loss rate (%)" 57.731958762887
scalar StarLAN.host[0].pingApp[34] "ping out-of-order rate (%)" 0
scalar StarLAN.host[0].pingApp[34] pingRxSeq:count 124
attr interpolationmode none
attr title "ping rx seq, count"
scalar StarLAN.host[0].pingApp[34] pingTxSeq:count 298
attr interpolationmode none
attr title "ping tx seq, count"
scalar StarLAN.host[0].pingApp[34] numOutOfOrderArrivals:last nan
attr interpolationmode none
attr title "ping out-of-order arrivals, last"
scalar StarLAN.host[0].pingApp[34] numLost:last 224
attr interpolationmode none
attr title "pings lost, last"
scalar StarLAN.host[0].pingApp[34] rtt:mean 0.016163776887562
attr interpolationmode none
attr title "ping round-trip time, mean"
attr unit s
scalar StarLAN.host[0].pingApp[35] "Pings sent" 377
scalar StarLAN.host[0].pingApp[35] "ping loss rate (%)" 63.129973474801
scalar StarLAN.host[0].pingApp[35] "ping out-of-order rate (%)" 0
scalar StarLAN.host[0].pingApp[35] pingRxSeq:count 116
attr interpolationmode none
attr title "ping rx seq, count"
scalar StarLAN.host[0].pingApp[35] pingTxSeq:count 288
attr interpolationmode none
attr title "ping tx seq, count"
scalar StarLAN.host[0].pingApp[35] numOutOfOrderArrivals:last nan
attr interpolationmode none
attr title "ping out-of-order arrivals, last"
scalar StarLAN.host[0].pingApp[35] numLost:last 237
attr interpolationmode none
attr title "pings lost, last"
scalar StarLAN.host[0].pingApp[35] rtt:mean 0.014424385709627
attr interpolationmode none
attr title "ping round-trip time, mean"
attr unit s
scalar StarLAN.host[0].pingApp[36] "Pings sent" 377
scalar StarLAN.host[0].pingApp[36] "ping loss rate (%)" 53.846153846154
scalar StarLAN.host[0].pingApp[36] "ping out-of-order rate (%)" 0.79575596816976
scalar StarLAN.host[0].pingApp[36] pingRxSeq:count 137
attr interpolationmode none
attr title "ping rx seq, count"
scalar StarLAN.host[0].pingApp[36] pingTxSeq:count 296
attr interpolationmode none
attr title "ping tx seq, count"
scalar StarLAN.host[0].pingApp[36] numOutOfOrderArrivals:last 3
attr interpolationmode none
attr title "ping out-of-order arrivals, last"
scalar StarLAN.host[0].pingApp[36] numLost:last 203
attr interpolationmode none
attr title "pings lost, last"
scalar StarLAN.host[0].pingApp[36] rtt:mean 0.016431250577489
attr interpolationmode none
attr title "ping round-trip time, mean"
attr unit s
scalar StarLAN.host[0].pingApp[37] "Pings sent" 402
scalar StarLAN.host[0].pingApp[37] "ping loss rate (%)" 53.980099502488
scalar StarLAN.host[0].pingApp[37] "ping out-of-order rate (%)" 0.49751243781095
scalar StarLAN.host[0].pingApp[37] pingRxSeq:count 141
attr interpolationmode none
attr title "ping rx seq, count"
scalar StarLAN.host[0].pingApp[37] pingTxSeq:count 307
attr interpolationmode none
attr title "ping tx seq, count"
scalar StarLAN.host[0].pingApp[37] numOutOfOrderArrivals:last 2
attr interpolationmode none
attr title "ping out-of-order arrivals, last"
scalar StarLAN.host[0].pingApp[37] numLost:last 217
attr interpolationmode none
attr title "pings lost, last"
scalar StarLAN.host[0].pingApp[37] rtt:mean 0.015170162664566
attr interpolationmode none
attr title "ping round-trip time, mean"
attr unit s
scalar StarLAN.host[0].pingApp[38] "Pings sent" 370
scalar StarLAN.host[0].pingApp[38] "ping loss rate (%)" 50.540540540541
scalar StarLAN.host[0].pingApp[38] "ping out-of-order rate (%)" 0
scalar StarLAN.host[0].pingApp[38] pingRxSeq:count 134
attr interpolationmode none
attr title "ping rx seq, count"
scalar StarLAN.host[0].pingApp[38] pingTxSeq:count 280
attr interpolationmode none
attr title "ping tx seq, count"
scalar StarLAN.host[0].pingApp[38] numOutOfOrderArrivals:last nan
attr interpolationmode none
attr title "ping out-of-order arrivals, last"
scalar StarLAN.host[0].pingApp[38] numLost:last 187
attr interpolationmode none
attr title "pings lost, last"
scalar StarLAN.host[0].pingApp[38] rtt:mean 0.015342026656941
attr interpolationmode none
attr title "ping round-trip time, mean"
attr unit s
scalar StarLAN.host[0].pingApp[39] "Pings sent" 384
scalar StarLAN.host[0].pingApp[39] "ping loss rate (%)" 54.427083333333
scalar StarLAN.host[0].pingApp[39] "ping out-of-order rate (%)" 0.26041666666667
scalar StarLAN.host[0].pingApp[39] pingRxSeq:count 131
attr interpolationmode none
attr title "ping rx seq, count"
scalar StarLAN.host[0].pingApp[39] pingTxSeq:count 292
attr interpolationmode none
attr title "ping tx seq, count"
scalar StarLAN.host[0].pingApp[39] numOutOfOrderArrivals:last 1
attr interpolationmode none
attr title "ping out-of-order arrivals, last"
scalar StarLAN.host[0].pingApp[39] numLost:last 205
attr interpolationmode none
attr title "pings lost, last"
scalar StarLAN.host[0].pingApp[39] rtt:mean 0.01562715553409
attr interpolationmode none
attr title "ping round-trip time, mean"
attr unit s
scalar StarLAN.host[0].pingApp[40] "Pings sent" 379
scalar StarLAN.host[0].pingApp[40] "ping loss rate (%)" 65.963060686016
scalar StarLAN.host[0].pingApp[40] "ping out-of-order rate (%)" 0.52770448548813
scalar StarLAN.host[0].pingApp[40] pingRxSeq:count 104
attr interpolationmode none
attr title "ping rx seq, count"
scalar StarLAN.host[0].pingApp[40] pingTxSeq:count 288
attr interpolationmode none
attr title "ping tx seq, count"
scalar StarLAN.host[0].pingApp[40] numOutOfOrderArrivals:last 2
attr interpolationmode none
attr title "ping out-of-order arrivals, last"
scalar StarLAN.host[0].pingApp[40] numLost:last 243
attr interpolationmode none
attr title "pings lost, last"
scalar StarLAN.host[0].pingApp[40] rtt:mean 0.014040042242521
attr interpolationmode none
attr title "ping round-trip time, mean"
attr unit s
scalar StarLAN.host[0].pingApp[41] "Pings sent" 372
scalar StarLAN.host[0].pingApp[41] "ping loss rate (%)" 54.838709677419
scalar StarLAN.host[0].pingApp[41] "ping out-of-order rate (%)" 0.26881720430108
scalar StarLAN.host[0].pingApp[41] pingRxSeq:count 127
attr interpolationmode none
attr title "ping rx seq, count"
scalar StarLAN.host[0].pingApp[41] pingTxSeq:count 283
attr interpolationmode none
attr title "ping tx seq, count"
scalar StarLAN.host[0].pingApp[41] numOutOfOrderArrivals:last nan
attr interpolationmode none
attr title "ping out-of-order arrivals, last"
scalar StarLAN.host[0].pingApp[41] numLost:last 202
attr interpolationmode none
attr title "pings lost, last"
scalar StarLAN.host[0].pingApp[41] rtt:mean 0.015692753228979
attr interpolationmode none
attr title "ping round-trip time, mean"
attr unit s
scalar StarLAN.host[0].pingApp[42] "Pings sent" 397
scalar StarLAN.host[0].pingApp[42] "ping loss rate (%)" 57.430730478589
scalar StarLAN.host[0].pingApp[42] "ping out-of-order rate (%)" 0
scalar StarLAN.host[0].pingApp[42] pingRxSeq:count 126
attr interpolationmode none
attr title "ping rx seq, count"
scalar StarLAN.host[0].pingApp[42] pingTxSeq:count 300
attr interpolationmode none
attr title "ping tx seq, count"
scalar StarLAN.host[0].pingApp[42] numOutOfOrderArrivals:last nan
attr interpolationmode none
attr title "ping out-of-order arrivals, last"
scalar StarLAN.host[0].pingApp[42] numLost:last 227
attr interpolationmode none
attr title "pings lost, last"
scalar StarLAN.host[0].pingApp[42] rtt:mean 0.014408248151736
attr interpolationmode none
attr title "ping round-trip time, mean"
attr unit s
scalar StarLAN.host[0].pingApp[43] "Pings sent" 376
scalar StarLAN.host[0].pingApp[43] "ping loss rate (%)" 59.840425531915
scalar StarLAN.host[0].pingApp[43] "ping out-of-order rate (%)" 0.26595744680851
scalar StarLAN.host[0].pingApp[43] pingRxSeq:count 110
attr interpolationmode none
attr title "ping rx seq, count"
scalar StarLAN.host[0].pingApp[43] pingTxSeq:count 282
attr interpolationmode none
attr title "ping tx seq, count"
scalar StarLAN.host[0].pingApp[43] numOutOfOrderArrivals:last 1
attr interpolationmode none
attr title "ping out-of-order arrivals, last"
scalar StarLAN.host[0].pingApp[43] numLost:last 224
attr interpolationmode none
attr title "pings lost, last"
scalar StarLAN.host[0].pingApp[43] rtt:mean 0.01413272390024
attr interpolationmode none
attr title "ping round-trip time, mean"
attr unit s
scalar StarLAN.host[0].pingApp[44] "Pings sent" 384
scalar StarLAN.host[0].pingApp[44] "ping loss rate (%)" 61.197916666667
scalar StarLAN.host[0].pingApp[44] "ping out-of-order rate (%)" 0
scalar StarLAN.host[0].pingApp[44] pingRxSeq:count 104
attr interpolationmode none
attr title "ping rx seq, count"
scalar StarLAN.host[0].pingApp[44] pingTxSeq:count 292
attr interpolationmode none
attr title "ping tx seq, count"
scalar StarLAN.host[0].pingApp[44] numOutOfOrderArrivals:last nan
attr interpolationmode none
attr title "ping out-of-order arrivals, last"
scalar StarLAN.host[0].pingApp[44] numLost:last 231
attr interpolationmode none
attr title "pings lost, last"
scalar StarLAN.host[0].pingApp[44] rtt:mean 0.015647965270814
attr interpolationmode none
attr title "ping round-trip time, mean"
attr unit s
scalar StarLAN.host[0].pingApp[45] "Pings sent" 389
scalar StarLAN.host[0].pingApp[45] "ping loss rate (%)" 55.012853470437
scalar StarLAN.host[0].pingApp[45] "ping out-of-order rate (%)" 0.25706940874036
scalar StarLAN.host[0].pingApp[45] pingRxSeq:count 141
attr interpolationmode none
attr title "ping rx seq, count"
scalar StarLAN.host[0].pingApp[45] pingTxSeq:count 291
attr interpolationmode none
attr title "ping tx seq, count"
scalar StarLAN.host[0].pingApp[45] numOutOfOrderArrivals:last nan
attr interpolationmode none
attr title "ping out-of-order arrivals, last"
scalar StarLAN.host[0].pingApp[45] numLost:last 213
attr interpolationmode none
attr title "pings lost, last"
scalar StarLAN.host[0].pingApp[45] rtt:mean 0.016392849475577
attr interpolationmode none
attr title "ping round-trip time, mean"
attr unit s
scalar StarLAN.host[0].pingApp[46] "Pings sent" 399
scalar StarLAN.host[0].pingApp[46] "ping loss rate (%)" 55.639097744361
scalar StarLAN.host[0].pingApp[46] "ping out-of-order rate (%)" 0
scalar StarLAN.host[0].pingApp[46] pingRxSeq:count 126
attr interpolationmode none
attr title "ping rx seq, count"
scalar StarLAN.host[0].pingApp[46] pingTxSeq:count 294
attr interpolationmode none
attr title "ping tx seq, count"
scalar StarLAN.host[0].pingApp[46] numOutOfOrderArrivals:last nan
attr interpolationmode none
attr title "ping out-of-order arrivals, last"
scalar StarLAN.host[0].pingApp[46] numLost:last 222
attr interpolationmode none
attr title "pings lost, last"
scalar StarLAN.host[0].pingApp[46] rtt:mean 0.015075408372694
attr interpolationmode none
attr title "ping round-trip time, mean"
attr unit s
scalar StarLAN.host[0].pingApp[47] "Pings sent" 383
scalar StarLAN.host[0].pingApp[47] "ping loss rate (%)" 59.007832898172
scalar StarLAN.host[0].pingApp[47] "ping out-of-order rate (%)" 0
scalar StarLAN.host[0].pingApp[47] pingRxSeq:count 117
attr interpolationmode none
attr title "ping rx seq, count"
scalar StarLAN.host[0].pingApp[47] pingTxSeq:count 291
attr interpolationmode none
attr title "ping tx seq, count"
scalar StarLAN.host[0].pingApp[47] numOutOfOrderArrivals:last nan
attr interpolationmode none
attr title "ping out-of-order arrivals, last"
scalar StarLAN.host[0].pingApp[47] numLost:last 226
attr interpolationmode none
attr title "pings lost, last"
scalar StarLAN.host[0].pingApp[47] rtt:mean 0.014193709470682
attr interpolationmode none
attr title "ping round-trip time, mean"
attr unit s
scalar StarLAN.host[0].pingApp[48] "Pings sent" 377
scalar StarLAN.host[0].pingApp[48] "ping loss rate (%)" 59.416445623342
scalar StarLAN.host[0].pingApp[48] "ping out-of-order rate (%)" 0
scalar StarLAN.host[0].pingApp[48] pingRxSeq:count 123
attr interpolationmode none
attr title "ping rx seq, count"
scalar StarLAN.host[0].pingApp[48] pingTxSeq:count 291
attr interpolationmode none
attr title "ping tx seq, count"
scalar StarLAN.host[0].pingApp[48] numOutOfOrderArrivals:last nan
attr interpolationmode none
attr title "ping out-of-order arrivals, last"
scalar StarLAN.host[0].pingApp[48] numLost:last 224
attr interpolationmode none
attr title "pings lost, last"
scalar StarLAN.host[0].pingApp[48] rtt:mean 0.014369175392823
attr interpolationmode none
attr title "ping round-trip time, mean"
attr unit s
scalar StarLAN.host[0].pingApp[49] "Pings sent" 404
scalar StarLAN.host[0].pingApp[49] "ping loss rate (%)" 65.346534653465
scalar StarLAN.host[0].pingApp[49] "ping out-of-order rate (%)" 0
scalar StarLAN.host[0].pingApp[49] pingRxSeq:count 106
attr interpolationmode none
attr title "ping rx seq, count"
scalar StarLAN.host[0].pingApp[49] pingTxSeq:count 301
attr interpolationmode none
attr title "ping tx seq, count"
scalar StarLAN.host[0].pingApp[49] numOutOfOrderArrivals:last nan
attr interpolationmode none
attr title "ping out-of-order arrivals, last"
scalar StarLAN.host[0].pingApp[49] numLost:last 263
attr interpolationmode none
attr title "pings lost, last"
scalar StarLAN.host[0].pingApp[49] rtt:mean 0.013960013232868
attr interpolationmode none
attr title "ping round-trip time, mean"
attr unit s
scalar StarLAN.host[0].pingApp[50] "Pings sent" 408
scalar StarLAN.host[0].pingApp[50] "ping loss rate (%)" 62.990196078431
scalar StarLAN.host[0].pingApp[50] "ping out-of-order rate (%)" 0.24509803921569
scalar StarLAN.host[0].pingApp[50] pingRxSeq:count 112
attr interpolationmode none
attr title "ping rx seq, count"
scalar StarLAN.host[0].pingApp[50] pingTxSeq:count 308
attr interpolationmode none
attr title "ping tx seq, count"
scalar StarLAN.host[0].pingApp[50] numOutOfOrderArrivals:last 1
attr interpolationmode none
attr title "ping out-of-order arrivals, last"
scalar StarLAN.host[0].pingApp[50] numLost:last 253
attr interpolationmode none
attr title "pings lost, last"
scalar StarLAN.host[0].pingApp[50] rtt:mean 0.013557304524243
attr interpolationmode none
attr title "ping round-trip time, mean"
attr unit s
scalar StarLAN.host[0].pingApp[51] "Pings sent" 373
scalar StarLAN.host[0].pingApp[51] "ping loss rate (%)" 61.662198391421
scalar StarLAN.host[0].pingApp[51] "ping out-of-order rate (%)" 0
scalar StarLAN.host[0].pingApp[51] pingRxSeq:count 113
attr interpolationmode none
attr title "ping rx seq, count"
scalar StarLAN.host[0].pingApp[51] pingTxSeq:count 282
attr interpolationmode none
attr title "ping tx seq, count"
scalar StarLAN.host[0].pingApp[51] numOutOfOrderArrivals:last nan
attr interpolationmode none
attr title "ping out-of-order arrivals, last"
scalar StarLAN.host[0].pingApp[51] numLost:last 230
attr interpolationmode none
attr title "pings lost, last"
scalar StarLAN.host[0].pingApp[51] rtt:mean 0.016160974159262
attr interpolationmode none
attr title "ping round-trip time, mean"
attr unit s
scalar StarLAN.host[0].pingApp[52] "Pings sent" 388
scalar StarLAN.host[0].pingApp[52] "ping loss rate (%)" 58.762886597938
scalar StarLAN.host[0].pingApp[52] "ping out-of-order rate (%)" 0.25773195876289
scalar StarLAN.host[0].pingApp[52] pingRxSeq:count 120
attr interpolationmode none
attr title "ping rx seq, count"
scalar StarLAN.host[0].pingApp[52] pingTxSeq:count 298
attr interpolationmode none
attr title "ping tx seq, count"
scalar StarLAN.host[0].pingApp[52] numOutOfOrderArrivals:last nan
attr interpolationmode none
attr title "ping out-of-order arrivals, last"
scalar StarLAN.host[0].pingApp[52] numLost:last 226
attr interpolationmode none
attr title "pings lost, last"
scalar StarLAN.host[0].pingApp[52] rtt:mean 0.014752161666163
attr interpolationmode none
attr title "ping round-trip time, mean"
attr unit s
scalar StarLAN.host[0].pingApp[53] "Pings sent" 391
scalar StarLAN.host[0].pingApp[53] "ping loss rate (%)" 49.872122762148
scalar StarLAN.host[0].pingApp[53] "ping out-of-order rate (%)" 0.76726342710997
scalar StarLAN.host[0].pingApp[53] pingRxSeq:count 145
attr interpolationmode none
attr title "ping rx seq, count"
scalar StarLAN.host[0].pingApp[53] pingTxSeq:count 290
attr interpolationmode none
attr title "ping tx seq, count"
scalar StarLAN.host[0].pingApp[53] numOutOfOrderArrivals:last 3
attr interpolationmode none
attr title "ping out-of-order arrivals, last"
scalar StarLAN.host[0].pingApp[53] numLost:last 194
attr interpolationmode none
attr title "pings lost, last"
scalar StarLAN.host[0].pingApp[53] rtt:mean 0.015047249478407
attr interpolationmode none
attr title "ping round-trip time, mean"
attr unit s
scalar StarLAN.host[0].pingApp[54] "Pings sent" 370
scalar StarLAN.host[0].pingApp[54] "ping loss rate (%)" 53.783783783784
scalar StarLAN.host[0].pingApp[54] "ping out-of-order rate (%)" 0
scalar StarLAN.host[0].pingApp[54] pingRxSeq:count 132
attr interpolationmode none
attr title "ping rx seq, count"
scalar StarLAN.host[0].pingApp[54] pingTxSeq:count 279
attr interpolationmode none
attr title "ping tx seq, count"
scalar StarLAN.host[0].pingApp[54] numOutOfOrderArrivals:last nan
attr interpolationmode none
attr title "ping out-of-order arrivals, last"
scalar StarLAN.host[0].pingApp[54] numLost:last 199
attr interpolationmode none
attr title "pings lost, last"
scalar StarLAN.host[0].pingApp[54] rtt:mean 0.015601798076608
attr interpolationmode none
attr title "ping round-trip time, mean"
attr unit s
scalar StarLAN.host[0].pingApp[55] "Pings sent" 383
scalar StarLAN.host[0].pingApp[55] "ping loss rate (%)" 56.135770234987
scalar StarLAN.host[0].pingApp[55] "ping out-of-order rate (%)" 0.26109660574413
scalar StarLAN.host[0].pingApp[55] pingRxSeq:count 126
attr interpolationmode none
attr title "ping rx seq, count"
scalar StarLAN.host[0].pingApp[55] pingTxSeq:count 292
attr interpolationmode none
attr title "ping tx seq, count"
scalar StarLAN.host[0].pingApp[55] numOutOfOrderArrivals:last 1
attr interpolationmode none
attr title "ping out-of-order arrivals, last"
scalar StarLAN.host[0].pingApp[55] numLost:last 215
attr interpolationmode none
attr title "pings lost, last"
scalar StarLAN.host[0].pingApp[55] rtt:mean 0.015515230939049
attr interpolationmode none
attr title "ping round-trip time, mean"
attr unit s
scalar StarLAN.host[0].pingApp[56] "Pings sent" 400
scalar StarLAN.host[0].pingApp[56] "ping loss rate (%)" 58.75
scalar StarLAN.host[0].pingApp[56] "ping out-of-order rate (%)" 0
scalar StarLAN.host[0].pingApp[56] pingRxSeq:count 124
attr interpolationmode none
attr title "ping rx seq, count"
scalar StarLAN.host[0].pingApp[56] pingTxSeq:count 307
attr interpolationmode none
attr title "ping tx seq, count"
scalar StarLAN.host[0].pingApp[56] numOutOfOrderArrivals:last nan
attr interpolationmode none
attr title "ping out-of-order arrivals, last"
scalar StarLAN.host[0].pingApp[56] numLost:last 235
attr interpolationmode none
attr title "pings lost, last"
scalar StarLAN.host[0].pingApp[56] rtt:mean 0.015924976594411
attr interpolationmode none
attr title "ping round-trip time, mean"
attr unit s
scalar StarLAN.host[0].pingApp[57] "Pings sent" 378
scalar StarLAN.host[0].pingApp[57] "ping loss rate (%)" 54.761904761905
scalar StarLAN.host[0].pingApp[57] "ping out-of-order rate (%)" 0.26455026455026
scalar StarLAN.host[0].pingApp[57] pingRxSeq:count 127
attr interpolationmode none
attr title "ping rx seq, count"
scalar StarLAN.host[0].pingApp[57] pingTxSeq:count 282
attr interpolationmode none
attr title "ping tx seq, count"
scalar StarLAN.host[0].pingApp[57] numOutOfOrderArrivals:last 1
attr interpolationmode none
attr title "ping out-of-order arrivals, last"
scalar StarLAN.host[0].pingApp[57] numLost:last 207
attr interpolationmode none
attr title "pings lost, last"
scalar StarLAN.host[0].pingApp[57] rtt:mean 0.015665642278969
attr interpolationmode none
attr title "ping round-trip time, mean"
attr unit s
scalar StarLAN.host[0].pingApp[58] "Pings sent" 397
scalar StarLAN.host[0].pingApp[58] "ping loss rate (%)" 64.735516372796
scalar StarLAN.host[0].pingApp[58] "ping out-of-order rate (%)" 0.25188916876574
scalar StarLAN.host[0].pingApp[58] pingRxSeq:count 104
attr interpolationmode none
attr title "ping rx seq, count"
scalar StarLAN.host[0].pingApp[58] pingTxSeq:count 299
attr interpolationmode none
attr title "ping tx seq, count"
scalar StarLAN.host[0].pingApp[58] numOutOfOrderArrivals:last 1
attr interpolationmode none
attr title "ping out-of-order arrivals, last"
scalar StarLAN.host[0].pingApp[58] numLost:last 252
attr interpolationmode none
attr title "pings lost, last"
scalar StarLAN.host[0].pingApp[58] rtt:mean 0.013734248575192
attr interpolationmode none
attr title "ping round-trip time, mean"
attr unit s
scalar StarLAN.host[0].pingApp[59] "Pings sent" 399
scalar StarLAN.host[0].pingApp[59] "ping loss rate (%)" 65.413533834586
scalar StarLAN.host[0].pingApp[59] "ping out-of-order rate (%)" 0.50125313283208
scalar StarLAN.host[0].pingApp[59] pingRxSeq:count 107
attr interpolationmode none
attr title "ping rx seq, count"
scalar StarLAN.host[0].pingApp[59] pingTxSeq:count 301
attr interpolationmode none
attr title "ping tx seq, count"
scalar StarLAN.host[0].pingApp[59] numOutOfOrderArrivals:last 2
attr interpolationmode none
attr title "ping out-of-order arrivals, last"
scalar StarLAN.host[0].pingApp[59] numLost:last 260
attr interpolationmode none
attr title "pings lost, last"
scalar StarLAN.host[0].pingApp[59] rtt:mean 0.014472114397057
attr interpolationmode none
attr title "ping round-trip time, mean"
attr unit s
scalar StarLAN.host[0].pingApp[60] "Pings sent" 386
scalar StarLAN.host[0].pingApp[60] "ping loss rate (%)" 58.290155440415
scalar StarLAN.host[0].pingApp[60] "ping out-of-order rate (%)" 0
scalar StarLAN.host[0].pingApp[60] pingRxSeq:count 125
attr interpolationmode none
attr title "ping rx seq, count"
scalar StarLAN.host[0].pingApp[60] pingTxSeq:count 292
attr interpolationmode none
attr title "ping tx seq, count"
scalar StarLAN.host[0].pingApp[60] numOutOfOrderArrivals:last nan
attr interpolationmode none
attr title "ping out-of-order arrivals, last"
scalar StarLAN.host[0].pingApp[60] numLost:last 223
attr interpolationmode none
attr title "pings lost, last"
scalar StarLAN.host[0].pingApp[60] rtt:mean 0.015567839369404
attr interpolationmode none
attr title "ping round-trip time, mean"
attr unit s
scalar StarLAN.host[0].pingApp[61] "Pings sent" 395
scalar StarLAN.host[0].pingApp[61] "ping loss rate (%)" 60.759493670886
scalar StarLAN.host[0].pingApp[61] "ping out-of-order rate (%)" 0.25316455696203
scalar StarLAN.host[0].pingApp[61] pingRxSeq:count 120
attr interpolationmode none
attr title "ping rx seq, count"
scalar StarLAN.host[0].pingApp[61] pingTxSeq:count 299
attr interpolationmode none
attr title "ping tx seq, count"
scalar StarLAN.host[0].pingApp[61] numOutOfOrderArrivals:last 1
attr interpolationmode none
attr title "ping out-of-order arrivals, last"
scalar StarLAN.host[0].pingApp[61] numLost:last 240
attr interpolationmode none
attr title "pings lost, last"
scalar StarLAN.host[0].pingApp[61] rtt:mean 0.014756195169291
attr interpolationmode none
attr title "ping round-trip time, mean"
attr unit s
scalar StarLAN.host[0].pingApp[62] "Pings sent" 382
scalar StarLAN.host[0].pingApp[62] "ping loss rate (%)" 55.235602094241
scalar StarLAN.host[0].pingApp[62] "ping out-of-order rate (%)" 0
scalar StarLAN.host[0].pingApp[62] pingRxSeq:count 132
attr interpolationmode none
attr title "ping rx seq, count"
scalar StarLAN.host[0].pingApp[62] pingTxSeq:count 289
attr interpolationmode none
attr title "ping tx seq, count"
scalar StarLAN.host[0].pingApp[62] numOutOfOrderArrivals:last nan
attr interpolationmode none
attr title "ping out-of-order arrivals, last"
scalar StarLAN.host[0].pingApp[62] numLost:last 210
attr interpolationmode none
attr title "pings lost, last"
scalar StarLAN.host[0].pingApp[62] rtt:mean 0.0152717769705
attr interpolationmode none
attr title "ping round-trip time, mean"
attr unit s
scalar StarLAN.host[0].pingApp[63] "Pings sent" 380
scalar StarLAN.host[0].pingApp[63] "ping loss rate (%)" 59.210526315789
scalar StarLAN.host[0].pingApp[63] "ping out-of-order rate (%)" 0
scalar StarLAN.host[0].pingApp[63] pingRxSeq:count 115
attr interpolationmode none
attr title "ping rx seq, count"
scalar StarLAN.host[0].pingApp[63] pingTxSeq:count 286
attr interpolationmode none
attr title "ping tx seq, count"
scalar StarLAN.host[0].pingApp[63] numOutOfOrderArrivals:last nan
attr interpolationmode none
attr title "ping out-of-order arrivals, last"
scalar StarLAN.host[0].pingApp[63] numLost:last 225
attr interpolationmode none
attr title "pings lost, last"
scalar StarLAN.host[0].pingApp[63] rtt:mean 0.015235533158963
attr interpolationmode none
attr title "ping round-trip time, mean"
attr unit s
scalar StarLAN.host[0].pingApp[64] "Pings sent" 390
scalar StarLAN.host[0].pingApp[64] "ping loss rate (%)" 56.923076923077
scalar StarLAN.host[0].pingApp[64] "ping out-of-order rate (%)" 0
scalar StarLAN.host[0].pingApp[64] pingRxSeq:count 130
attr interpolationmode none
attr title "ping rx seq, count"
scalar StarLAN.host[0].pingApp[64] pingTxSeq:count 294
attr interpolationmode none
attr title "ping tx seq, count"
scalar StarLAN.host[0].pingApp[64] numOutOfOrderArrivals:last nan
attr interpolationmode none
attr title "ping out-of-order arrivals, last"
scalar StarLAN.host[0].pingApp[64] numLost:last 222
attr interpolationmode none
attr title "pings lost, last"
scalar StarLAN.host[0].pingApp[64] rtt:mean 0.015541777381318
attr interpolationmode none
attr title "ping round-trip time, mean"
attr unit s
scalar StarLAN.host[0].pingApp[65] "Pings sent" 399
scalar StarLAN.host[0].pingApp[65] "ping loss rate (%)" 59.147869674185
scalar StarLAN.host[0].pingApp[65] "ping out-of-order rate (%)" 0.25062656641604
scalar StarLAN.host[0].pingApp[65] pingRxSeq:count 124
attr interpolationmode none
attr title "ping rx seq, count"
scalar StarLAN.host[0].pingApp[65] pingTxSeq:count 305
attr interpolationmode none
attr title "ping tx seq, count"
scalar StarLAN.host[0].pingApp[65] numOutOfOrderArrivals:last 1
attr interpolationmode none
attr title "ping out-of-order arrivals, last"
scalar StarLAN.host[0].pingApp[65] numLost:last 234
attr interpolationmode none
attr title "pings lost, last"
scalar StarLAN.host[0].pingApp[65] rtt:mean 0.01480514304136
attr interpolationmode none
attr title "ping round-trip time, mean"
attr unit s
scalar StarLAN.host[0].pingApp[66] "Pings sent" 388
scalar StarLAN.host[0].pingApp[66] "ping loss rate (%)" 51.80412371134
scalar StarLAN.host[0].pingApp[66] "ping out-of-order rate (%)" 0.25773195876289
scalar StarLAN.host[0].pingApp[66] pingRxSeq:count 142
attr interpolationmode none
attr title "ping rx seq, count"
scalar StarLAN.host[0].pingApp[66] pingTxSeq:count 299
attr interpolationmode none
attr title "ping tx seq, count"
scalar StarLAN.host[0].pingApp[66] numOutOfOrderArrivals:last 1
attr interpolationmode none
attr title "ping out-of-order arrivals, last"
scalar StarLAN.host[0].pingApp[66] numLost:last 201
attr interpolationmode none
attr title "pings lost, last"
scalar StarLAN.host[0].pingApp[66] rtt:mean 0.016003748817336
attr interpolationmode none
attr title "ping round-trip time, mean"
attr unit s
scalar StarLAN.host[0].pingApp[67] "Pings sent" 375
scalar StarLAN.host[0].pingApp[67] "ping loss rate (%)" 60.266666666667
scalar StarLAN.host[0].pingApp[67] "ping out-of-order rate (%)" 0.26666666666667
scalar StarLAN.host[0].pingApp[67] pingRxSeq:count 113
attr interpolationmode none
attr title "ping rx seq, count"
scalar StarLAN.host[0].pingApp[67] pingTxSeq:count 293
attr interpolationmode none
attr title "ping tx seq, count"
scalar StarLAN.host[0].pingApp[67] numOutOfOrderArrivals:last 1
attr interpolationmode none
attr title "ping out-of-order arrivals, last"
scalar StarLAN.host[0].pingApp[67] numLost:last 225
attr interpolationmode none
attr title "pings lost, last"
scalar StarLAN.host[0].pingApp[67] rtt:mean 0.014893002398298
attr interpolationmode none
attr title "ping round-trip time, mean"
attr unit s
scalar StarLAN.host[0].pingApp[68] "Pings sent" 385
scalar StarLAN.host[0].pingApp[68] "ping loss rate (%)" 57.922077922078
scalar StarLAN.host[0].pingApp[68] "ping out-of-order rate (%)" 0
scalar StarLAN.host[0].pingApp[68] pingRxSeq:count 114
attr interpolationmode none
attr title "ping rx seq, count"
scalar StarLAN.host[0].pingApp[68] pingTxSeq:count 282
attr interpolationmode none
attr title "ping tx seq, count"
scalar StarLAN.host[0].pingApp[68] numOutOfOrderArrivals:last nan
attr interpolationmode none
attr title "ping out-of-order arrivals, last"
scalar StarLAN.host[0].pingApp[68] numLost:last 222
attr interpolationmode none
attr title "pings lost, last"
scalar StarLAN.host[0].pingApp[68] rtt:mean 0.014914365594277
attr interpolationmode none
attr title "ping round-trip time, mean"
attr unit s
scalar StarLAN.host[0].pingApp[69] "Pings sent" 379
scalar StarLAN.host[0].pingApp[69] "ping loss rate (%)" 62.005277044855
scalar StarLAN.host[0].pingApp[69] "ping out-of-order rate (%)" 0
scalar StarLAN.host[0].pingApp[69] pingRxSeq:count 113
attr interpolationmode none
attr title "ping rx seq, count"
scalar StarLAN.host[0].pingApp[69] pingTxSeq:count 291
attr interpolationmode none
attr title "ping tx seq, count"
scalar StarLAN.host[0].pingApp[69] numOutOfOrderArrivals:last nan
attr interpolationmode none
attr title "ping out-of-order arrivals, last"
scalar StarLAN.host[0].pingApp[69] numLost:last 234
attr interpolationmode none
attr title "pings lost, last"
scalar StarLAN.host[0].pingApp[69] rtt:mean 0.015753505930614
attr interpolationmode none
attr title "ping round-trip time, mean"
attr unit s
scalar StarLAN.host[0].pingApp[70] "Pings sent" 388
scalar StarLAN.host[0].pingApp[70] "ping loss rate (%)" 61.340206185567
scalar StarLAN.host[0].pingApp[70] "ping out-of-order rate (%)" 0
scalar StarLAN.host[0].pingApp[70] pingRxSeq:count 111
attr interpolationmode none
attr title "ping rx seq, count"
scalar StarLAN.host[0].pingApp[70] pingTxSeq:count 297
attr interpolationmode none
attr title "ping tx seq, count"
scalar StarLAN.host[0].pingApp[70] numOutOfOrderArrivals:last nan
attr interpolationmode none
attr title "ping out-of-order arrivals, last"
scalar StarLAN.host[0].pingApp[70] numLost:last 237
attr interpolationmode none
attr title "pings lost, last"
scalar StarLAN.host[0].pingApp[70] rtt:mean 0.015568625075382
attr interpolationmode none
attr title "ping round-trip time, mean"
attr unit s
scalar StarLAN.host[0].pingApp[71] "Pings sent" 380
scalar StarLAN.host[0].pingApp[71] "ping loss rate (%)" 53.684210526316
scalar StarLAN.host[0].pingApp[71] "ping out-of-order rate (%)" 1.0526315789474
scalar StarLAN.host[0].pingApp[71] pingRxSeq:count 142
attr interpolationmode none
attr title "ping rx seq, count"
scalar StarLAN.host[0].pingApp[71] pingTxSeq:count 287
attr interpolationmode none
attr title "ping tx seq, count"
scalar StarLAN.host[0].pingApp[71] numOutOfOrderArrivals:last 4
attr interpolationmode none
attr title "ping out-of-order arrivals, last"
scalar StarLAN.host[0].pingApp[71] numLost:last 203
attr interpolationmode none
attr title "pings lost, last"
scalar StarLAN.host[0].pingApp[71] rtt:mean 0.015913301547255
attr interpolationmode none
attr title "ping round-trip time, mean"
attr unit s
scalar StarLAN.host[0].pingApp[72] "Pings sent" 394
scalar StarLAN.host[0].pingApp[72] "ping loss rate (%)" 68.274111675127
scalar StarLAN.host[0].pingApp[72] "ping out-of-order rate (%)" 0.25380710659898
scalar StarLAN.host[0].pingApp[72] pingRxSeq:count 96
attr interpolationmode none
attr title "ping rx seq, count"
scalar StarLAN.host[0].pingApp[72] pingTxSeq:count 300
attr interpolationmode none
attr title "ping tx seq, count"
scalar StarLAN.host[0].pingApp[72] numOutOfOrderArrivals:last 1
attr interpolationmode none
attr title "ping out-of-order arrivals, last"
scalar StarLAN.host[0].pingApp[72] numLost:last 262
attr interpolationmode none
attr title "pings lost, last"
scalar StarLAN.host[0].pingApp[72] rtt:mean 0.014715378648423
attr interpolationmode none
attr title "ping round-trip time, mean"
attr unit s
scalar StarLAN.host[0].pingApp[73] "Pings sent" 383
scalar StarLAN.host[0].pingApp[73] "ping loss rate (%)" 59.007832898172
scalar StarLAN.host[0].pingApp[73] "ping out-of-order rate (%)" 0
scalar StarLAN.host[0].pingApp[73] pingRxSeq:count 125
attr interpolationmode none
attr title "ping rx seq, count"
scalar StarLAN.host[0].pingApp[73] pingTxSeq:count 296
attr interpolationmode none
attr title "ping tx seq, count"
scalar StarLAN.host[0].pingApp[73] numOutOfOrderArrivals:last nan
attr interpolationmode none
attr title "ping out-of-order arrivals, last"
scalar StarLAN.host[0].pingApp[73] numLost:last 226
attr interpolationmode none
attr title "pings lost, last"
scalar StarLAN.host[0].pingApp[73] rtt:mean 0.014436892815295
attr interpolationmode none
attr title "ping round-trip time, mean"
attr unit s
scalar StarLAN.host[0].pingApp[74] "Pings sent" 387
scalar StarLAN.host[0].pingApp[74] "ping loss rate (%)" 59.68992248062
scalar StarLAN.host[0].pingApp[74] "ping out-of-order rate (%)" 0.25839793281654
scalar StarLAN.host[0].pingApp[74] pingRxSeq:count 124
attr interpolationmode none
attr title "ping rx seq, count"
scalar StarLAN.host[0].pingApp[74] pingTxSeq:count 293
attr interpolationmode none
attr title "ping tx seq, count"
scalar StarLAN.host[0].pingApp[74] numOutOfOrderArrivals:last 1
attr interpolationmode none
attr title "ping out-of-order arrivals, last"
scalar StarLAN.host[0].pingApp[74] numLost:last 227
attr interpolationmode none
attr title "pings lost, last"
scalar StarLAN.host[0].pingApp[74] rtt:mean 0.0153934012505
attr interpolationmode none
attr title "ping round-trip time, mean"
attr unit s
scalar StarLAN.host[0].pingApp[75] "Pings sent" 384
scalar StarLAN.host[0].pingApp[75] "ping loss rate (%)" 55.208333333333
scalar StarLAN.host[0].pingApp[75] "ping out-of-order rate (%)" 0
scalar StarLAN.host[0].pingApp[75] pingRxSeq:count 137
attr interpolationmode none
attr title "ping rx seq, count"
scalar StarLAN.host[0].pingApp[75] pingTxSeq:count 296
attr interpolationmode none
attr title "ping tx seq, count"
scalar StarLAN.host[0].pingApp[75] numOutOfOrderArrivals:last nan
attr interpolationmode none
attr title "ping out-of-order arrivals, last"
scalar StarLAN.host[0].pingApp[75] numLost:last 210
attr interpolationmode none
attr title "pings lost, last"
scalar StarLAN.host[0].pingApp[75] rtt:mean 0.014579220119703
attr interpolationmode none
attr title "ping round-trip time, mean"
attr unit s
scalar StarLAN.host[0].pingApp[76] "Pings sent" 379
scalar StarLAN.host[0].pingApp[76] "ping loss rate (%)" 56.992084432718
scalar StarLAN.host[0].pingApp[76] "ping out-of-order rate (%)" 0.52770448548813
scalar StarLAN.host[0].pingApp[76] pingRxSeq:count 125
attr interpolationmode none
attr title "ping rx seq, count"
scalar StarLAN.host[0].pingApp[76] pingTxSeq:count 287
attr interpolationmode none
attr title "ping tx seq, count"
scalar StarLAN.host[0].pingApp[76] numOutOfOrderArrivals:last 2
attr interpolationmode none
attr title "ping out-of-order arrivals, last"
scalar StarLAN.host[0].pingApp[76] numLost:last 213
attr interpolationmode none
attr title "pings lost, last"
scalar StarLAN.host[0].pingApp[76] rtt:mean 0.015252693401375
attr interpolationmode none
attr title "ping round-trip time, mean"
attr unit s
scalar StarLAN.host[0].pingApp[77] "Pings sent" 378
scalar StarLAN.host[0].pingApp[77] "ping loss rate (%)" 58.730158730159
scalar StarLAN.host[0].pingApp[77] "ping out-of-order rate (%)" 0.52910052910053
scalar StarLAN.host[0].pingApp[77] pingRxSeq:count 130
attr interpolationmode none
attr title "ping rx seq, count"
scalar StarLAN.host[0].pingApp[77] pingTxSeq:count 294
attr interpolationmode none
attr title "ping tx seq, count"
scalar StarLAN.host[0].pingApp[77] numOutOfOrderArrivals:last 2
attr interpolationmode none
attr title "ping out-of-order arrivals, last"
scalar StarLAN.host[0].pingApp[77] numLost:last 221
attr interpolationmode none
attr title "pings lost, last"
scalar StarLAN.host[0].pingApp[77] rtt:mean 0.015188991232053
attr interpolationmode none
attr title "ping round-trip time, mean"
attr unit s
scalar StarLAN.host[0].pingApp[78] "Pings sent" 375
scalar StarLAN.host[0].pingApp[78] "ping loss rate (%)" 66.133333333333
scalar StarLAN.host[0].pingApp[78] "ping out-of-order rate (%)" 0.26666666666667
scalar StarLAN.host[0].pingApp[78] pingRxSeq:count 95
attr interpolationmode none
attr title "ping rx seq, count"
scalar StarLAN.host[0].pingApp[78] pingTxSeq:count 283
attr interpolationmode none
attr title "ping tx seq, count"
scalar StarLAN.host[0].pingApp[78] numOutOfOrderArrivals:last 1
attr interpolationmode none
attr title "ping out-of-order arrivals, last"
scalar StarLAN.host[0].pingApp[78] numLost:last 246
attr interpolationmode none
attr title "pings lost, last"
scalar StarLAN.host[0].pingApp[78] rtt:mean 0.013939059487174
attr interpolationmode none
attr title "ping round-trip time, mean"
attr unit s
scalar StarLAN.host[0].pingApp[79] "Pings sent" 372
scalar StarLAN.host[0].pingApp[79] "ping loss rate (%)" 54.032258064516
scalar StarLAN.host[0].pingApp[79] "ping out-of-order rate (%)" 0.26881720430108
scalar StarLAN.host[0].pingApp[79] pingRxSeq:count 133
attr interpolationmode none
attr title "ping rx seq, count"
scalar StarLAN.host[0].pingApp[79] pingTxSeq:count 282
attr interpolationmode none
attr title "ping tx seq, count"
scalar StarLAN.host[0].pingApp[79] numOutOfOrderArrivals:last 1
attr interpolationmode none
attr title "ping out-of-order arrivals, last"
scalar StarLAN.host[0].pingApp[79] numLost:last 200
attr interpolationmode none
attr title "pings lost, last"
scalar StarLAN.host[0].pingApp[79] rtt:mean 0.015001174793135
attr interpolationmode none
attr title "ping round-trip time, mean"
attr unit s
scalar StarLAN.host[0].pingApp[80] "Pings sent" 379
scalar StarLAN.host[0].pingApp[80] "ping loss rate (%)" 62.005277044855
scalar StarLAN.host[0].pingApp[80] "ping out-of-order rate (%)" 0.26385224274406
scalar StarLAN.host[0].pingApp[80] pingRxSeq:count 105
attr interpolationmode none
attr title "ping rx seq, count"
scalar StarLAN.host[0].pingApp[80] pingTxSeq:count 282
attr interpolationmode none
attr title "ping tx seq, count"
scalar StarLAN.host[0].pingApp[80] numOutOfOrderArrivals:last 1
attr interpolationmode none
attr title "ping out-of-order arrivals, last"
scalar StarLAN.host[0].pingApp[80] numLost:last 233
attr interpolationmode none
attr title "pings lost, last"
scalar StarLAN.host[0].pingApp[80] rtt:mean 0.013820247513681
attr interpolationmode none
attr title "ping round-trip time, mean"
attr unit s
scalar StarLAN.host[0].pingApp[81] "Pings sent" 380
scalar StarLAN.host[0].pingApp[81] "ping loss rate (%)" 53.421052631579
scalar StarLAN.host[0].pingApp[81] "ping out-of-order rate (%)" 0.26315789473684
scalar StarLAN.host[0].pingApp[81] pingRxSeq:count 140
attr interpolationmode none
attr title "ping rx seq, count"
scalar StarLAN.host[0].pingApp[81] pingTxSeq:count 288
attr interpolationmode none
attr title "ping tx seq, count"
scalar StarLAN.host[0].pingApp[81] numOutOfOrderArrivals:last 1
attr interpolationmode none
attr title "ping out-of-order arrivals, last"
scalar StarLAN.host[0].pingApp[81] numLost:last 202
attr interpolationmode none
attr title "pings lost, last"
scalar StarLAN.host[0].pingApp[81] rtt:mean 0.015887508938658
attr interpolationmode none
attr title "ping round-trip time, mean"
attr unit s
scalar StarLAN.host[0].pingApp[82] "Pings sent" 401
scalar StarLAN.host[0].pingApp[82] "ping loss rate (%)" 56.608478802993
scalar StarLAN.host[0].pingApp[82] "ping out-of-order rate (%)" 0.49875311720698
scalar StarLAN.host[0].pingApp[82] pingRxSeq:count 131
attr interpolationmode none
attr title "ping rx seq, count"
scalar StarLAN.host[0].pingApp[82] pingTxSeq:count 295
attr interpolationmode none
attr title "ping tx seq, count"
scalar StarLAN.host[0].pingApp[82] numOutOfOrderArrivals:last 2
attr interpolationmode none
attr title "ping out-of-order arrivals, last"
scalar StarLAN.host[0].pingApp[82] numLost:last 222
attr interpolationmode none
attr title "pings lost, last"
scalar StarLAN.host[0].pingApp[82] rtt:mean 0.015400629323486
attr interpolationmode none
attr title "ping round-trip time, mean"
attr unit s
scalar StarLAN.host[0].pingApp[83] "Pings sent" 369
scalar StarLAN.host[0].pingApp[83] "ping loss rate (%)" 58.536585365854
scalar StarLAN.host[0].pingApp[83] "ping out-of-order rate (%)" 0
scalar StarLAN.host[0].pingApp[83] pingRxSeq:count 115
attr interpolationmode none
attr title "ping rx seq, count"
scalar StarLAN.host[0].pingApp[83] pingTxSeq:count 285
attr interpolationmode none
attr title "ping tx seq, count"
scalar StarLAN.host[0].pingApp[83] numOutOfOrderArrivals:last nan
attr interpolationmode none
attr title "ping out-of-order arrivals, last"
scalar StarLAN.host[0].pingApp[83] numLost:last 216
attr interpolationmode none
attr title "pings lost, last"
scalar StarLAN.host[0].pingApp[83] rtt:mean 0.015168586085213
attr interpolationmode none
attr title "ping round-trip time, mean"
attr unit s
scalar StarLAN.host[0].pingApp[84] "Pings sent" 393
scalar StarLAN.host[0].pingApp[84] "ping loss rate (%)" 56.234096692112
scalar StarLAN.host[0].pingApp[84] "ping out-of-order rate (%)" 0
scalar StarLAN.host[0].pingApp[84] pingRxSeq:count 122
attr interpolationmode none
attr title "ping rx seq, count"
scalar StarLAN.host[0].pingApp[84] pingTxSeq:count 297
attr interpolationmode none
attr title "ping tx seq, count"
scalar StarLAN.host[0].pingApp[84] numOutOfOrderArrivals:last nan
attr interpolationmode none
attr title "ping out-of-order arrivals, last"
scalar StarLAN.host[0].pingApp[84] numLost:last 219
attr interpolationmode none
attr title "pings lost, last"
scalar StarLAN.host[0].pingApp[84] rtt:mean 0.01435933563422
attr interpolationmode none
attr title "ping round-trip time, mean"
attr unit s
scalar StarLAN.host[0].pingApp[85] "Pings sent" 383
scalar StarLAN.host[0].pingApp[85] "ping loss rate (%)" 60.052219321149
scalar StarLAN.host[0].pingApp[85] "ping out-of-order rate (%)" 0.52219321148825
[...]
field stddev 0.0014156417800589
field min 0
field max 0.006557526209
field sum 73.415145353939
field sqrsum 0.23878326289994
attr interpolationmode none
attr title "queueing time, histogram"
bin	-inf	0
bin	-0.0003400527335	0
bin	-7.5588167566667e-005	1771
bin	0.00018887639836667	1184
bin	0.0004533409643	1380
bin	0.00071780553023333	1494
bin	0.00098227009616667	1616
bin	0.0012467346621	1629
bin	0.0015111992280333	1736
bin	0.0017756637939667	1750
bin	0.0020401283599	1722
bin	0.0023045929258333	1729
bin	0.0025690574917667	1783
bin	0.0028335220577	1827
bin	0.0030979866236333	1739
bin	0.0033624511895667	1744
bin	0.0036269157555	1736
bin	0.0038913803214333	1546
bin	0.0041558448873667	1350
bin	0.0044203094533	981
bin	0.0046847740192333	721
bin	0.0049492385851667	441
bin	0.0052137031511	217
bin	0.0054781677170333	112
bin	0.0057426322829667	37
bin	0.0060070968489	5
bin	0.0062715614148333	2
bin	0.0065360259807667	1
bin	0.0068004905467	0
bin	0.0070649551126333	0
bin	0.0073294196785667	0
bin	0.0075938842445	0
scalar StarLAN.router.eth[7].queue.dataQueue dropPk:count 1508
attr interpolationmode none
attr source dropPkByQueue
attr title "dropped packets, count"
scalar StarLAN.router.eth[7].queue.dataQueue dropPk:sum(packetBytes) 844099
attr interpolationmode none
attr source dropPkByQueue
attr title "dropped packets, sum(packetBytes)"
scalar StarLAN.router.eth[7].queue.dataQueue rcvdPk:count 31754
attr interpolationmode none
attr title "received packets, count"
scalar StarLAN.router.eth[7].queue.dataQueue rcvdPk:sum(packetBytes) 18349407
attr interpolationmode none
attr title "received packets, sum(packetBytes)"
scalar StarLAN.router.eth[7].mac "simulated time" 20
scalar StarLAN.router.eth[7].mac full-duplex 1
scalar StarLAN.router.eth[7].mac "frames/sec sent" 2002.7
scalar StarLAN.router.eth[7].mac "frames/sec rcvd" 2060.3
scalar StarLAN.router.eth[7].mac "bits/sec sent" 9255856.4
scalar StarLAN.router.eth[7].mac "bits/sec rcvd" 9607624.8
scalar StarLAN.router.eth[7].mac "rx channel idle (%)" 2.60516
scalar StarLAN.router.eth[7].mac "rx channel utilization (%)" 97.39484
scalar StarLAN.router.eth[7].mac "rx channel collision (%)" 0
scalar StarLAN.router.eth[7].mac collisions 0
scalar StarLAN.router.eth[7].mac backoffs 0
scalar StarLAN.router.eth[7].mac backoff:count 0
attr interpolationmode none
attr title "backoff, count"
scalar StarLAN.router.eth[7].mac collision:count 0
attr interpolationmode none
attr title "collision, count"
scalar StarLAN.router.eth[7].mac rxPkFromHL:count 30253
attr interpolationmode none
attr source rxPkFromHL
attr title "packet bytes from higher layer, count"
scalar StarLAN.router.eth[7].mac rxPkFromHL:sum(packetBytes) 17508984
attr interpolationmode none
attr source rxPkFromHL
attr title "packet bytes from higher layer, sum(packetBytes)"
scalar StarLAN.router.eth[7].mac rxPausePkUnits:count 0
attr interpolationmode none
attr title "pause units received, count"
scalar StarLAN.router.eth[7].mac rxPausePkUnits:sum 0
attr interpolationmode none
attr title "pause units received, sum"
scalar StarLAN.router.eth[7].mac txPausePkUnits:count 0
attr interpolationmode none
attr title "pause units sent, count"
scalar StarLAN.router.eth[7].mac txPausePkUnits:sum 0
attr interpolationmode none
attr title "pause units sent, sum"
scalar StarLAN.router.eth[7].mac txPk:count 30253
attr interpolationmode none
attr source txPk
attr title "packets transmitted, count"
scalar StarLAN.router.eth[7].mac txPk:sum(packetBytes) 17508729
attr interpolationmode none
attr source txPk
attr title "packets transmitted, sum(packetBytes)"
scalar StarLAN.router.eth[7].mac droppedPkNotForUs:count 0
attr interpolationmode none
attr source dropPkNotForUs
attr title "packets dropped/not for us, count"
scalar StarLAN.router.eth[7].mac droppedPkNotForUs:sum(packetBytes) 0
attr interpolationmode none
attr source dropPkNotForUs
attr title "packets dropped/not for us, sum(packetBytes)"
scalar StarLAN.router.eth[7].mac droppedPkBitError:count 0
attr interpolationmode none
attr source dropPkBitError
attr title "packets dropped/bit error, count"
scalar StarLAN.router.eth[7].mac droppedPkBitError:sum(packetBytes) 0
attr interpolationmode none
attr source dropPkBitError
attr title "packets dropped/bit error, sum(packetBytes)"
scalar StarLAN.router.eth[7].mac droppedPkIfaceDown:count 0
attr interpolationmode none
attr source dropPkIfaceDown
attr title "packets dropped/interface down, count"
scalar StarLAN.router.eth[7].mac droppedPkIfaceDown:sum(packetBytes) 0
attr interpolationmode none
attr source dropPkIfaceDown
attr title "packets dropped/interface down, sum(packetBytes)"
scalar StarLAN.router.eth[7].mac rxPkOk:count 31089
attr interpolationmode none
attr source rxPkOk
attr title "packets received OK, count"
scalar StarLAN.router.eth[7].mac rxPkOk:sum(packetBytes) 18127708
attr interpolationmode none
attr source rxPkOk
attr title "packets received OK, sum(packetBytes)"
scalar StarLAN.router.eth[7].mac passedUpPk:count 31089
attr interpolationmode none
attr source packetSentToUpper
attr title "packets passed to higher layer, count"
scalar StarLAN.router.eth[7].mac passedUpPk:sum(packetBytes) 18127708
attr interpolationmode none
attr source packetSentToUpper
attr title "packets passed to higher layer, sum(packetBytes)"
scalar StarLAN.router.eth[8].queue.pauseQueue queueLength:max nan
attr interpolationmode sample-hold
attr title "queue length, max"
scalar StarLAN.router.eth[8].queue.pauseQueue queueLength:timeavg nan
attr interpolationmode sample-hold
attr title "queue length, timeavg"
statistic StarLAN.router.eth[8].queue.pauseQueue queueingTime:histogram
field count 0
field mean nan
field stddev nan
field min nan
field max nan
field sum 0
field sqrsum 0
attr interpolationmode none
attr title "queueing time, histogram"
bin	-inf	0
bin	-0.5	0
bin	-0.46666666666667	0
bin	-0.43333333333333	0
bin	-0.4	0
bin	-0.36666666666667	0
bin	-0.33333333333333	0
bin	-0.3	0
bin	-0.26666666666667	0
bin	-0.23333333333333	0
bin	-0.2	0
bin	-0.16666666666667	0
bin	-0.13333333333333	0
bin	-0.1	0
bin	-0.066666666666667	0
bin	-0.033333333333333	0
bin	0	0
bin	0.033333333333333	0
bin	0.066666666666667	0
bin	0.1	0
bin	0.13333333333333	0
bin	0.16666666666667	0
bin	0.2	0
bin	0.23333333333333	0
bin	0.26666666666667	0
bin	0.3	0
bin	0.33333333333333	0
bin	0.36666666666667	0
bin	0.4	0
bin	0.43333333333333	0
bin	0.46666666666667	0
bin	0.5	0
scalar StarLAN.router.eth[8].queue.pauseQueue dropPk:count 0
attr interpolationmode none
attr source dropPkByQueue
attr title "dropped packets, count"
scalar StarLAN.router.eth[8].queue.pauseQueue dropPk:sum(packetBytes) 0
attr interpolationmode none
attr source dropPkByQueue
attr title "dropped packets, sum(packetBytes)"
scalar StarLAN.router.eth[8].queue.pauseQueue rcvdPk:count 0
attr interpolationmode none
attr title "received packets, count"
scalar StarLAN.router.eth[8].queue.pauseQueue rcvdPk:sum(packetBytes) 0
attr interpolationmode none
attr title "received packets, sum(packetBytes)"
scalar StarLAN.router.eth[8].queue.dataQueue queueLength:max 10
attr interpolationmode sample-hold
attr title "queue length, max"
scalar StarLAN.router.eth[8].queue.dataQueue queueLength:timeavg 4.4681347534333
attr interpolationmode sample-hold
attr title "queue length, timeavg"
statistic StarLAN.router.eth[8].queue.dataQueue queueingTime:histogram
field count 30108
field mean 0.0022255937890237
field stddev 0.0014326428592336
field min 0
field max 0.006373391518
field sum 67.008177799926
field sqrsum 0.21092656500385
attr interpolationmode none
attr title "queueing time, histogram"
bin	-inf	0
bin	-0.001987803021	0
bin	-0.0017227626182	0
bin	-0.0014577222154	0
bin	-0.0011926818126	0
bin	-0.0009276414098	0
bin	-0.000662601007	0
bin	-0.0003975606042	0
bin	-0.0001325202014	2193
bin	0.0001325202014	1443
bin	0.0003975606042	1713
bin	0.000662601007	1771
bin	0.0009276414098	1740
bin	0.0011926818126	1623
bin	0.0014577222154	1648
bin	0.0017227626182	1662
bin	0.001987803021	1724
bin	0.0022528434238	1666
bin	0.0025178838266	1642
bin	0.0027829242294	1706
bin	0.0030479646322	1678
bin	0.003313005035	1597
bin	0.0035780454378	1569
bin	0.0038430858406	1376
bin	0.0041081262434	1132
bin	0.0043731666462	875
bin	0.004638207049	632
bin	0.0049032474518	374
bin	0.0051682878546	218
bin	0.0054333282574	81
bin	0.0056983686602	32
bin	0.005963409063	13
scalar StarLAN.router.eth[8].queue.dataQueue dropPk:count 1251
attr interpolationmode none
attr source dropPkByQueue
attr title "dropped packets, count"
scalar StarLAN.router.eth[8].queue.dataQueue dropPk:sum(packetBytes) 676866
attr interpolationmode none
attr source dropPkByQueue
attr title "dropped packets, sum(packetBytes)"
scalar StarLAN.router.eth[8].queue.dataQueue rcvdPk:count 31361
attr interpolationmode none
attr title "received packets, count"
scalar StarLAN.router.eth[8].queue.dataQueue rcvdPk:sum(packetBytes) 17897634
attr interpolationmode none
attr title "received packets, sum(packetBytes)"
scalar StarLAN.router.eth[8].mac "simulated time" 20
scalar StarLAN.router.eth[8].mac full-duplex 1
scalar StarLAN.router.eth[8].mac "frames/sec sent" 1994.8
scalar StarLAN.router.eth[8].mac "frames/sec rcvd" 2087.05
scalar StarLAN.router.eth[8].mac "bits/sec sent" 9116016.8
scalar StarLAN.router.eth[8].mac "bits/sec rcvd" 9601602
scalar StarLAN.router.eth[8].mac "rx channel idle (%)" 2.648268
scalar StarLAN.router.eth[8].mac "rx channel utilization (%)" 97.351732
scalar StarLAN.router.eth[8].mac "rx channel collision (%)" 0
scalar StarLAN.router.eth[8].mac collisions 0
scalar StarLAN.router.eth[8].mac backoffs 0
scalar StarLAN.router.eth[8].mac backoff:count 0
attr interpolationmode none
attr title "backoff, count"
scalar StarLAN.router.eth[8].mac collision:count 0
attr interpolationmode none
attr title "collision, count"
scalar StarLAN.router.eth[8].mac rxPkFromHL:count 30108
attr interpolationmode none
attr source rxPkFromHL
attr title "packet bytes from higher layer, count"
scalar StarLAN.router.eth[8].mac rxPkFromHL:sum(packetBytes) 17221087
attr interpolationmode none
attr source rxPkFromHL
attr title "packet bytes from higher layer, sum(packetBytes)"
scalar StarLAN.router.eth[8].mac rxPausePkUnits:count 0
attr interpolationmode none
attr title "pause units received, count"
scalar StarLAN.router.eth[8].mac rxPausePkUnits:sum 0
attr interpolationmode none
attr title "pause units received, sum"
scalar StarLAN.router.eth[8].mac txPausePkUnits:count 0
attr interpolationmode none
attr title "pause units sent, count"
scalar StarLAN.router.eth[8].mac txPausePkUnits:sum 0
attr interpolationmode none
attr title "pause units sent, sum"
scalar StarLAN.router.eth[8].mac txPk:count 30108
attr interpolationmode none
attr source txPk
attr title "packets transmitted, count"
scalar StarLAN.router.eth[8].mac txPk:sum(packetBytes) 17221502
attr interpolationmode none
attr source txPk
attr title "packets transmitted, sum(packetBytes)"
scalar StarLAN.router.eth[8].mac droppedPkNotForUs:count 0
attr interpolationmode none
attr source dropPkNotForUs
attr title "packets dropped/not for us, count"
scalar StarLAN.router.eth[8].mac droppedPkNotForUs:sum(packetBytes) 0
attr interpolationmode none
attr source dropPkNotForUs
attr title "packets dropped/not for us, sum(packetBytes)"
scalar StarLAN.router.eth[8].mac droppedPkBitError:count 0
attr interpolationmode none
attr source dropPkBitError
attr title "packets dropped/bit error, count"
scalar StarLAN.router.eth[8].mac droppedPkBitError:sum(packetBytes) 0
attr interpolationmode none
attr source dropPkBitError
attr title "packets dropped/bit error, sum(packetBytes)"
scalar StarLAN.router.eth[8].mac droppedPkIfaceDown:count 0
attr interpolationmode none
attr source dropPkIfaceDown
attr title "packets dropped/interface down, count"
scalar StarLAN.router.eth[8].mac droppedPkIfaceDown:sum(packetBytes) 0
attr interpolationmode none
attr source dropPkIfaceDown
attr title "packets dropped/interface down, sum(packetBytes)"
scalar StarLAN.router.eth[8].mac rxPkOk:count 31482
attr interpolationmode none
attr source rxPkOk
attr title "packets received OK, count"
scalar StarLAN.router.eth[8].mac rxPkOk:sum(packetBytes) 18120545
attr interpolationmode none
attr source rxPkOk
attr title "packets received OK, sum(packetBytes)"
scalar StarLAN.router.eth[8].mac passedUpPk:count 31482
attr interpolationmode none
attr source packetSentToUpper
attr title "packets passed to higher layer, count"
scalar StarLAN.router.eth[8].mac passedUpPk:sum(packetBytes) 18120545
attr interpolationmode none
attr source packetSentToUpper
attr title "packets passed to higher layer, sum(packetBytes)"
scalar StarLAN.router.eth[9].queue.pauseQueue queueLength:max nan
attr interpolationmode sample-hold
attr title "queue length, max"
scalar StarLAN.router.eth[9].queue.pauseQueue queueLength:timeavg nan
attr interpolationmode sample-hold
attr title "queue length, timeavg"
statistic StarLAN.router.eth[9].queue.pauseQueue queueingTime:histogram
field count 0
field mean nan
field stddev nan
field min nan
field max nan
field sum 0
field sqrsum 0
attr interpolationmode none
attr title "queueing time, histogram"
bin	-inf	0
bin	-0.5	0
bin	-0.46666666666667	0
bin	-0.43333333333333	0
bin	-0.4	0
bin	-0.36666666666667	0
bin	-0.33333333333333	0
bin	-0.3	0
bin	-0.26666666666667	0
bin	-0.23333333333333	0
bin	-0.2	0
bin	-0.16666666666667	0
bin	-0.13333333333333	0
bin	-0.1	0
bin	-0.066666666666667	0
bin	-0.033333333333333	0
bin	0	0
bin	0.033333333333333	0
bin	0.066666666666667	0
bin	0.1	0
bin	0.13333333333333	0
bin	0.16666666666667	0
bin	0.2	0
bin	0.23333333333333	0
bin	0.26666666666667	0
bin	0.3	0
bin	0.33333333333333	0
bin	0.36666666666667	0
bin	0.4	0
bin	0.43333333333333	0
bin	0.46666666666667	0
bin	0.5	0
scalar StarLAN.router.eth[9].queue.pauseQueue dropPk:count 0
attr interpolationmode none
attr source dropPkByQueue
attr title "dropped packets, count"
scalar StarLAN.router.eth[9].queue.pauseQueue dropPk:sum(packetBytes) 0
attr interpolationmode none
attr source dropPkByQueue
attr title "dropped packets, sum(packetBytes)"
scalar StarLAN.router.eth[9].queue.pauseQueue rcvdPk:count 0
attr interpolationmode none
attr title "received packets, count"
scalar StarLAN.router.eth[9].queue.pauseQueue rcvdPk:sum(packetBytes) 0
attr interpolationmode none
attr title "received packets, sum(packetBytes)"
scalar StarLAN.router.eth[9].queue.dataQueue queueLength:max 10
attr interpolationmode sample-hold
attr title "queue length, max"
scalar StarLAN.router.eth[9].queue.dataQueue queueLength:timeavg 4.7186692197821
attr interpolationmode sample-hold
attr title "queue length, timeavg"
statistic StarLAN.router.eth[9].queue.dataQueue queueingTime:histogram
field count 30429
field mean 0.0023265430732212
field stddev 0.0014239958638076
field min 0
field max 0.006489531563
field sum 70.794379175049
field sqrsum 0.22640698218316
attr interpolationmode none
attr title "queueing time, histogram"
bin	-inf	0
bin	-0.002574647824	0
bin	-0.0022313614474667	0
bin	-0.0018880750709333	0
bin	-0.0015447886944	0
bin	-0.0012015023178667	0
bin	-0.00085821594133333	0
bin	-0.0005149295648	0
bin	-0.00017164318826667	2015
bin	0.00017164318826667	1818
bin	0.0005149295648	2019
bin	0.00085821594133333	2164
bin	0.0012015023178667	2227
bin	0.0015447886944	2203
bin	0.0018880750709333	2247
bin	0.0022313614474667	2310
bin	0.002574647824	2213
bin	0.0029179342005333	2277
bin	0.0032612205770667	2218
bin	0.0036045069536	2078
bin	0.0039477933301333	1803
bin	0.0042910797066667	1293
bin	0.0046343660832	870
bin	0.0049776524597333	450
bin	0.0053209388362667	147
bin	0.0056642252128	63
bin	0.0060075115893333	12
bin	0.0063507979658667	2
bin	0.0066940843424	0
bin	0.0070373707189333	0
bin	0.0073806570954667	0
bin	0.007723943472	0
scalar StarLAN.router.eth[9].queue.dataQueue dropPk:count 1361
attr interpolationmode none
attr source dropPkByQueue
attr title "dropped packets, count"
scalar StarLAN.router.eth[9].queue.dataQueue dropPk:sum(packetBytes) 760149
attr interpolationmode none
attr source dropPkByQueue
attr title "dropped packets, sum(packetBytes)"
scalar StarLAN.router.eth[9].queue.dataQueue rcvdPk:count 31786
attr interpolationmode none
attr title "received packets, count"
scalar StarLAN.router.eth[9].queue.dataQueue rcvdPk:sum(packetBytes) 18152889
attr interpolationmode none
attr title "received packets, sum(packetBytes)"
scalar StarLAN.router.eth[9].mac "simulated time" 20
scalar StarLAN.router.eth[9].mac full-duplex 1
scalar StarLAN.router.eth[9].mac "frames/sec sent" 2014.85
scalar StarLAN.router.eth[9].mac "frames/sec rcvd" 2116.3
scalar StarLAN.router.eth[9].mac "bits/sec sent" 9211883.2
scalar StarLAN.router.eth[9].mac "bits/sec rcvd" 9601699.2
scalar StarLAN.router.eth[9].mac "rx channel idle (%)" 2.628576
scalar StarLAN.router.eth[9].mac "rx channel utilization (%)" 97.371424
scalar StarLAN.router.eth[9].mac "rx channel collision (%)" 0
scalar StarLAN.router.eth[9].mac collisions 0
scalar StarLAN.router.eth[9].mac backoffs 0
scalar StarLAN.router.eth[9].mac backoff:count 0
attr interpolationmode none
attr title "backoff, count"
scalar StarLAN.router.eth[9].mac collision:count 0
attr interpolationmode none
attr title "collision, count"
scalar StarLAN.router.eth[9].mac rxPkFromHL:count 30429
attr interpolationmode none
attr source rxPkFromHL
attr title "packet bytes from higher layer, count"
scalar StarLAN.router.eth[9].mac rxPkFromHL:sum(packetBytes) 17393109
attr interpolationmode none
attr source rxPkFromHL
attr title "packet bytes from higher layer, sum(packetBytes)"
scalar StarLAN.router.eth[9].mac rxPausePkUnits:count 0
attr interpolationmode none
attr title "pause units received, count"
scalar StarLAN.router.eth[9].mac rxPausePkUnits:sum 0
attr interpolationmode none
attr title "pause units received, sum"
scalar StarLAN.router.eth[9].mac txPausePkUnits:count 0
attr interpolationmode none
attr title "pause units sent, count"
scalar StarLAN.router.eth[9].mac txPausePkUnits:sum 0
attr interpolationmode none
attr title "pause units sent, sum"
scalar StarLAN.router.eth[9].mac txPk:count 30429
attr interpolationmode none
attr source txPk
attr title "packets transmitted, count"
scalar StarLAN.router.eth[9].mac txPk:sum(packetBytes) 17393805
attr interpolationmode none
attr source txPk
attr title "packets transmitted, sum(packetBytes)"
scalar StarLAN.router.eth[9].mac droppedPkNotForUs:count 0
attr interpolationmode none
attr source dropPkNotForUs
attr title "packets dropped/not for us, count"
scalar StarLAN.router.eth[9].mac droppedPkNotForUs:sum(packetBytes) 0
attr interpolationmode none
attr source dropPkNotForUs
attr title "packets dropped/not for us, sum(packetBytes)"
scalar StarLAN.router.eth[9].mac droppedPkBitError:count 0
attr interpolationmode none
attr source dropPkBitError
attr title "packets dropped/bit error, count"
scalar StarLAN.router.eth[9].mac droppedPkBitError:sum(packetBytes) 0
attr interpolationmode none
attr source dropPkBitError
attr title "packets dropped/bit error, sum(packetBytes)"
scalar StarLAN.router.eth[9].mac droppedPkIfaceDown:count 0
attr interpolationmode none
attr source dropPkIfaceDown
attr title "packets dropped/interface down, count"
scalar StarLAN.router.eth[9].mac droppedPkIfaceDown:sum(packetBytes) 0
attr interpolationmode none
attr source dropPkIfaceDown
attr title "packets dropped/interface down, sum(packetBytes)"
scalar StarLAN.router.eth[9].mac rxPkOk:count 31935
attr interpolationmode none
attr source rxPkOk
attr title "packets received OK, count"
scalar StarLAN.router.eth[9].mac rxPkOk:sum(packetBytes) 18111221
attr interpolationmode none
attr source rxPkOk
attr title "packets received OK, sum(packetBytes)"
scalar StarLAN.router.eth[9].mac passedUpPk:count 31935
attr interpolationmode none
attr source packetSentToUpper
attr title "packets passed to higher layer, count"
scalar StarLAN.router.eth[9].mac passedUpPk:sum(packetBytes) 18111221
attr interpolationmode none
attr source packetSentToUpper
attr title "packets passed to higher layer, sum(packetBytes)"

