version 2
run StarLAN10-base-0-20180110-19:16:59-6928
attr configname StarLAN10-base
attr datetime 20180110-19:16:59
attr experiment StarLAN10-base
attr inifile StarLAN.ini
attr iterationvars $pa=2
attr iterationvarsf pa=2-
attr measurement $pa=2
attr network StarLAN
attr processid 6928
attr repetition 0
attr replication #0
attr resultdir results
attr runnumber 0
attr seedset 0
itervar pa 2
param *.numHosts 10
param **.datarate 10Mbps
param **.host[*].pingApp[*].sendInterval "truncnormal(50ms, 25ms)"
param **.host[*].pingApp[*].packetSize "truncnormal(1024B, 512B)"
param **.queueType "\"DropTailQueue\""
param **.frameCapacity 10
param **.mtu 1024B
param **.host[*].numPingApps 2
param **.host[*].pingApp[*].typename "\"PingApp\""
param **.host[*].pingApp[*].count 1
param **.host[*].pingApp[*].startTime "truncnormal(200ms, 100ms)"
param **.host[*].pingApp[*].destAddr "\"*\""

scalar StarLAN.host[0].networkLayer.arp sentReply:count 0
attr title "ARP replies sent, count"
scalar StarLAN.host[0].networkLayer.arp sentReq:count 0
attr title "ARP request sent, count"
scalar StarLAN.host[0].networkLayer.arp failedARPResolution:count 0
attr title "ARP failed resolutions, count"
scalar StarLAN.host[0].networkLayer.arp completedARPResolution:count 0
attr title "ARP completed resolutions, count"
scalar StarLAN.host[0].networkLayer.arp initiatedARPResolution:count 0
attr title "ARP initiated resolutions, count"
scalar StarLAN.host[0].lo0.lo droppedPkBitError:count 0
attr interpolationmode none
attr source dropPkBitError
attr title "packets dropped/bit error, count"
scalar StarLAN.host[0].lo0.lo droppedPkBitError:sum(packetBytes) 0
attr interpolationmode none
attr source dropPkBitError
attr title "packets dropped/bit error, sum(packetBytes)"
scalar StarLAN.host[0].lo0.lo rcvdPkFromHL:count 148
attr interpolationmode none
attr source packetReceivedFromUpper
attr title "packets received from higher layer, count"
scalar StarLAN.host[0].lo0.lo rcvdPkFromHL:sum(packetBytes) 97072
attr interpolationmode none
attr source packetReceivedFromUpper
attr title "packets received from higher layer, sum(packetBytes)"
scalar StarLAN.host[0].lo0.lo passedUpPk:count 148
attr interpolationmode none
attr source packetSentToUpper
attr title "packets passed to higher layer, count"
scalar StarLAN.host[0].lo0.lo passedUpPk:sum(packetBytes) 97072
attr interpolationmode none
attr source packetSentToUpper
attr title "packets passed to higher layer, sum(packetBytes)"
scalar StarLAN.host[0].eth[0].queue.pauseQueue queueLength:max nan
attr interpolationmode sample-hold
attr title "queue length, max"
scalar StarLAN.host[0].eth[0].queue.pauseQueue queueLength:timeavg nan
attr interpolationmode sample-hold
attr title "queue length, timeavg"
statistic StarLAN.host[0].eth[0].queue.pauseQueue queueingTime:histogram
field count 0
field mean nan
field stddev nan
field min nan
field max nan
field sum 0
field sqrsum 0
attr interpolationmode none
attr title "queueing time, histogram"
bin	-inf	0
bin	-0.5	0
bin	-0.46666666666667	0
bin	-0.43333333333333	0
bin	-0.4	0
bin	-0.36666666666667	0
bin	-0.33333333333333	0
bin	-0.3	0
bin	-0.26666666666667	0
bin	-0.23333333333333	0
bin	-0.2	0
bin	-0.16666666666667	0
bin	-0.13333333333333	0
bin	-0.1	0
bin	-0.066666666666667	0
bin	-0.033333333333333	0
bin	0	0
bin	0.033333333333333	0
bin	0.066666666666667	0
bin	0.1	0
bin	0.13333333333333	0
bin	0.16666666666667	0
bin	0.2	0
bin	0.23333333333333	0
bin	0.26666666666667	0
bin	0.3	0
bin	0.33333333333333	0
bin	0.36666666666667	0
bin	0.4	0
bin	0.43333333333333	0
bin	0.46666666666667	0
bin	0.5	0
scalar StarLAN.host[0].eth[0].queue.pauseQueue dropPk:count 0
attr interpolationmode none
attr source dropPkByQueue
attr title "dropped packets, count"
scalar StarLAN.host[0].eth[0].queue.pauseQueue dropPk:sum(packetBytes) 0
attr interpolationmode none
attr source dropPkByQueue
attr title "dropped packets, sum(packetBytes)"
scalar StarLAN.host[0].eth[0].queue.pauseQueue rcvdPk:count 0
attr interpolationmode none
attr title "received packets, count"
scalar StarLAN.host[0].eth[0].queue.pauseQueue rcvdPk:sum(packetBytes) 0
attr interpolationmode none
attr title "received packets, sum(packetBytes)"
scalar StarLAN.host[0].eth[0].queue.dataQueue queueLength:max 3
attr interpolationmode sample-hold
attr title "queue length, max"
scalar StarLAN.host[0].eth[0].queue.dataQueue queueLength:timeavg 0.027294497984391
attr interpolationmode sample-hold
attr title "queue length, timeavg"
statistic StarLAN.host[0].eth[0].queue.dataQueue queueingTime:histogram
field count 1502
field mean 0.00027256835476299
field stddev 0.00040038656865427
field min 0
field max 0.002077026475
field sum 0.409397668854
field sqrsum 0.00035221326498581
attr interpolationmode none
attr title "queueing time, histogram"
bin	-inf	0
bin	-0.0008809543665	0
bin	-0.0007634937843	0
bin	-0.0006460332021	0
bin	-0.0005285726199	0
bin	-0.0004111120377	0
bin	-0.0002936514555	0
bin	-0.0001761908733	0
bin	-5.87302911e-005	1002
bin	5.87302911e-005	11
bin	0.0001761908733	13
bin	0.0002936514555	4
bin	0.0004111120377	4
bin	0.0005285726199	6
bin	0.0006460332021	4
bin	0.0007634937843	436
bin	0.0008809543665	6
bin	0.0009984149487	7
bin	0.0011158755309	2
bin	0.0012333361131	2
bin	0.0013507966953	2
bin	0.0014682572775	0
bin	0.0015857178597	1
bin	0.0017031784419	1
bin	0.0018206390241	0
bin	0.0019380996063	0
bin	0.0020555601885	1
bin	0.0021730207707	0
bin	0.0022904813529	0
bin	0.0024079419351	0
bin	0.0025254025173	0
bin	0.0026428630995	0
scalar StarLAN.host[0].eth[0].queue.dataQueue dropPk:count 0
attr interpolationmode none
attr source dropPkByQueue
attr title "dropped packets, count"
scalar StarLAN.host[0].eth[0].queue.dataQueue dropPk:sum(packetBytes) 0
attr interpolationmode none
attr source dropPkByQueue
attr title "dropped packets, sum(packetBytes)"
scalar StarLAN.host[0].eth[0].queue.dataQueue rcvdPk:count 1502
attr interpolationmode none
attr title "received packets, count"
scalar StarLAN.host[0].eth[0].queue.dataQueue rcvdPk:sum(packetBytes) 1052603
attr interpolationmode none
attr title "received packets, sum(packetBytes)"
scalar StarLAN.host[0].eth[0].mac "simulated time" 20
scalar StarLAN.host[0].eth[0].mac full-duplex 1
scalar StarLAN.host[0].eth[0].mac "frames/sec sent" 100.1
scalar StarLAN.host[0].eth[0].mac "frames/sec rcvd" 101.9
scalar StarLAN.host[0].eth[0].mac "bits/sec sent" 560819.6
scalar StarLAN.host[0].eth[0].mac "bits/sec rcvd" 561741.2
scalar StarLAN.host[0].eth[0].mac "rx channel idle (%)" 94.317372
scalar StarLAN.host[0].eth[0].mac "rx channel utilization (%)" 5.682628
scalar StarLAN.host[0].eth[0].mac rxPkFromHL:count 1502
attr interpolationmode none
attr source rxPkFromHL
attr title "packet bytes from higher layer, count"
scalar StarLAN.host[0].eth[0].mac rxPkFromHL:sum(packetBytes) 1052603
attr interpolationmode none
attr source rxPkFromHL
attr title "packet bytes from higher layer, sum(packetBytes)"
scalar StarLAN.host[0].eth[0].mac rxPausePkUnits:count 0
attr interpolationmode none
attr title "pause units received, count"
scalar StarLAN.host[0].eth[0].mac rxPausePkUnits:sum 0
attr interpolationmode none
attr title "pause units received, sum"
scalar StarLAN.host[0].eth[0].mac txPausePkUnits:count 0
attr interpolationmode none
attr title "pause units sent, count"
scalar StarLAN.host[0].eth[0].mac txPausePkUnits:sum 0
attr interpolationmode none
attr title "pause units sent, sum"
scalar StarLAN.host[0].eth[0].mac txPk:count 1502
attr interpolationmode none
attr source txPk
attr title "packets transmitted, count"
scalar StarLAN.host[0].eth[0].mac txPk:sum(packetBytes) 1052603
attr interpolationmode none
attr source txPk
attr title "packets transmitted, sum(packetBytes)"
scalar StarLAN.host[0].eth[0].mac droppedPkNotForUs:count 0
attr interpolationmode none
attr source dropPkNotForUs
attr title "packets dropped/not for us, count"
scalar StarLAN.host[0].eth[0].mac droppedPkNotForUs:sum(packetBytes) 0
attr interpolationmode none
attr source dropPkNotForUs
attr title "packets dropped/not for us, sum(packetBytes)"
scalar StarLAN.host[0].eth[0].mac droppedPkBitError:count 0
attr interpolationmode none
attr source dropPkBitError
attr title "packets dropped/bit error, count"
scalar StarLAN.host[0].eth[0].mac droppedPkBitError:sum(packetBytes) 0
attr interpolationmode none
attr source dropPkBitError
attr title "packets dropped/bit error, sum(packetBytes)"
scalar StarLAN.host[0].eth[0].mac droppedPkIfaceDown:count 0
attr interpolationmode none
attr source dropPkIfaceDown
attr title "packets dropped/interface down, count"
scalar StarLAN.host[0].eth[0].mac droppedPkIfaceDown:sum(packetBytes) 0
attr interpolationmode none
attr source dropPkIfaceDown
attr title "packets dropped/interface down, sum(packetBytes)"
scalar StarLAN.host[0].eth[0].mac rxPkOk:count 1504
attr interpolationmode none
attr source rxPkOk
attr title "packets received OK, count"
scalar StarLAN.host[0].eth[0].mac rxPkOk:sum(packetBytes) 1054147
attr interpolationmode none
attr source rxPkOk
attr title "packets received OK, sum(packetBytes)"
scalar StarLAN.host[0].eth[0].mac passedUpPk:count 1504
attr interpolationmode none
attr source packetSentToUpper
attr title "packets passed to higher layer, count"
scalar StarLAN.host[0].eth[0].mac passedUpPk:sum(packetBytes) 1054147
attr interpolationmode none
attr source packetSentToUpper
attr title "packets passed to higher layer, sum(packetBytes)"
scalar StarLAN.host[0].eth[0].encap pauseSent:count 0
attr title "pause sent, count"
scalar StarLAN.host[0].eth[0].encap pauseSent:sum 0
attr title "pause sent, sum"
scalar StarLAN.host[0].eth[0].encap decapPk:count 1504
attr interpolationmode none
attr source decapPk
attr title "packets decapsulated, count"
scalar StarLAN.host[0].eth[0].encap decapPk:sum(packetBytes) 1027075
attr interpolationmode none
attr source decapPk
attr title "packets decapsulated, sum(packetBytes)"
scalar StarLAN.host[0].eth[0].encap encapPk:count 1502
attr interpolationmode none
attr source encapPk
attr title "packets encapsulated, count"
scalar StarLAN.host[0].eth[0].encap encapPk:sum(packetBytes) 1025567
attr interpolationmode none
attr source encapPk
attr title "packets encapsulated, sum(packetBytes)"
scalar StarLAN.host[0].pingApp[0] "Pings sent" 388
scalar StarLAN.host[0].pingApp[0] "ping loss rate (%)" 0
scalar StarLAN.host[0].pingApp[0] "ping out-of-order rate (%)" 0
scalar StarLAN.host[0].pingApp[0] pingRxSeq:count 300
attr interpolationmode none
attr title "ping rx seq, count"
scalar StarLAN.host[0].pingApp[0] pingTxSeq:count 300
attr interpolationmode none
attr title "ping tx seq, count"
scalar StarLAN.host[0].pingApp[0] numOutOfOrderArrivals:last nan
attr interpolationmode none
attr title "ping out-of-order arrivals, last"
scalar StarLAN.host[0].pingApp[0] numLost:last nan
attr interpolationmode none
attr title "pings lost, last"
scalar StarLAN.host[0].pingApp[0] rtt:mean 0.0018258550430704
attr interpolationmode none
attr title "ping round-trip time, mean"
attr unit s
scalar StarLAN.host[0].pingApp[1] "Pings sent" 384
scalar StarLAN.host[0].pingApp[1] "ping loss rate (%)" 0
scalar StarLAN.host[0].pingApp[1] "ping out-of-order rate (%)" 0
scalar StarLAN.host[0].pingApp[1] pingRxSeq:count 289
attr interpolationmode none
attr title "ping rx seq, count"
scalar StarLAN.host[0].pingApp[1] pingTxSeq:count 288
attr interpolationmode none
attr title "ping tx seq, count"
scalar StarLAN.host[0].pingApp[1] numOutOfOrderArrivals:last nan
attr interpolationmode none
attr title "ping out-of-order arrivals, last"
scalar StarLAN.host[0].pingApp[1] numLost:last nan
attr interpolationmode none
attr title "pings lost, last"
scalar StarLAN.host[0].pingApp[1] rtt:mean 0.0042815014429026
attr interpolationmode none
attr title "ping round-trip time, mean"
attr unit s
scalar StarLAN.host[1].networkLayer.arp sentReply:count 0
attr title "ARP replies sent, count"
scalar StarLAN.host[1].networkLayer.arp sentReq:count 0
attr title "ARP request sent, count"
scalar StarLAN.host[1].networkLayer.arp failedARPResolution:count 0
attr title "ARP failed resolutions, count"
scalar StarLAN.host[1].networkLayer.arp completedARPResolution:count 0
attr title "ARP completed resolutions, count"
scalar StarLAN.host[1].networkLayer.arp initiatedARPResolution:count 0
attr title "ARP initiated resolutions, count"
scalar StarLAN.host[1].lo0.lo droppedPkBitError:count 0
attr interpolationmode none
attr source dropPkBitError
attr title "packets dropped/bit error, count"
scalar StarLAN.host[1].lo0.lo droppedPkBitError:sum(packetBytes) 0
attr interpolationmode none
attr source dropPkBitError
attr title "packets dropped/bit error, sum(packetBytes)"
scalar StarLAN.host[1].lo0.lo rcvdPkFromHL:count 92
attr interpolationmode none
attr source packetReceivedFromUpper
attr title "packets received from higher layer, count"
scalar StarLAN.host[1].lo0.lo rcvdPkFromHL:sum(packetBytes) 71224
attr interpolationmode none
attr source packetReceivedFromUpper
attr title "packets received from higher layer, sum(packetBytes)"
scalar StarLAN.host[1].lo0.lo passedUpPk:count 92
attr interpolationmode none
attr source packetSentToUpper
attr title "packets passed to higher layer, count"
scalar StarLAN.host[1].lo0.lo passedUpPk:sum(packetBytes) 71224
attr interpolationmode none
attr source packetSentToUpper
attr title "packets passed to higher layer, sum(packetBytes)"
scalar StarLAN.host[1].eth[0].queue.pauseQueue queueLength:max nan
attr interpolationmode sample-hold
attr title "queue length, max"
scalar StarLAN.host[1].eth[0].queue.pauseQueue queueLength:timeavg nan
attr interpolationmode sample-hold
attr title "queue length, timeavg"
statistic StarLAN.host[1].eth[0].queue.pauseQueue queueingTime:histogram
field count 0
field mean nan
field stddev nan
field min nan
field max nan
field sum 0
field sqrsum 0
attr interpolationmode none
attr title "queueing time, histogram"
bin	-inf	0
bin	-0.5	0
bin	-0.46666666666667	0
bin	-0.43333333333333	0
bin	-0.4	0
bin	-0.36666666666667	0
bin	-0.33333333333333	0
bin	-0.3	0
bin	-0.26666666666667	0
bin	-0.23333333333333	0
bin	-0.2	0
bin	-0.16666666666667	0
bin	-0.13333333333333	0
bin	-0.1	0
bin	-0.066666666666667	0
bin	-0.033333333333333	0
bin	0	0
bin	0.033333333333333	0
bin	0.066666666666667	0
bin	0.1	0
bin	0.13333333333333	0
bin	0.16666666666667	0
bin	0.2	0
bin	0.23333333333333	0
bin	0.26666666666667	0
bin	0.3	0
bin	0.33333333333333	0
bin	0.36666666666667	0
bin	0.4	0
bin	0.43333333333333	0
bin	0.46666666666667	0
bin	0.5	0
scalar StarLAN.host[1].eth[0].queue.pauseQueue dropPk:count 0
attr interpolationmode none
attr source dropPkByQueue
attr title "dropped packets, count"
scalar StarLAN.host[1].eth[0].queue.pauseQueue dropPk:sum(packetBytes) 0
attr interpolationmode none
attr source dropPkByQueue
attr title "dropped packets, sum(packetBytes)"
scalar StarLAN.host[1].eth[0].queue.pauseQueue rcvdPk:count 0
attr interpolationmode none
attr title "received packets, count"
scalar StarLAN.host[1].eth[0].queue.pauseQueue rcvdPk:sum(packetBytes) 0
attr interpolationmode none
attr title "received packets, sum(packetBytes)"
scalar StarLAN.host[1].eth[0].queue.dataQueue queueLength:max 2
attr interpolationmode sample-hold
attr title "queue length, max"
scalar StarLAN.host[1].eth[0].queue.dataQueue queueLength:timeavg 0.012213285225598
attr interpolationmode sample-hold
attr title "queue length, timeavg"
statistic StarLAN.host[1].eth[0].queue.dataQueue queueingTime:histogram
field count 1243
field mean 0.00014725065034031
field stddev 0.00032033334555081
field min 0
field max 0.001534371963
field sum 0.183032558373
field sqrsum 0.00015439757097542
attr interpolationmode none
attr title "queueing time, histogram"
bin	-inf	0
bin	-0.000458	0
bin	-0.00039693333333333	0
bin	-0.00033586666666667	0
bin	-0.0002748	0
bin	-0.00021373333333333	0
bin	-0.00015266666666667	0
bin	-9.16e-005	0
bin	-3.0533333333333e-005	1011
bin	3.0533333333333e-005	3
bin	9.16e-005	2
bin	0.00015266666666667	2
bin	0.00021373333333333	4
bin	0.0002748	8
bin	0.00033586666666667	2
bin	0.00039693333333333	3
bin	0.000458	4
bin	0.00051906666666667	2
bin	0.00058013333333333	2
bin	0.0006412	2
bin	0.00070226666666667	0
bin	0.00076333333333333	0
bin	0.0008244	188
bin	0.00088546666666667	2
bin	0.00094653333333333	0
bin	0.0010076	0
bin	0.0010686666666667	3
bin	0.0011297333333333	1
bin	0.0011908	0
bin	0.0012518666666667	0
bin	0.0013129333333333	2
bin	0.001374	2
scalar StarLAN.host[1].eth[0].queue.dataQueue dropPk:count 0
attr interpolationmode none
attr source dropPkByQueue
attr title "dropped packets, count"
scalar StarLAN.host[1].eth[0].queue.dataQueue dropPk:sum(packetBytes) 0
attr interpolationmode none
attr source dropPkByQueue
attr title "dropped packets, sum(packetBytes)"
scalar StarLAN.host[1].eth[0].queue.dataQueue rcvdPk:count 1243
attr interpolationmode none
attr title "received packets, count"
scalar StarLAN.host[1].eth[0].queue.dataQueue rcvdPk:sum(packetBytes) 932616
attr interpolationmode none
attr title "received packets, sum(packetBytes)"
scalar StarLAN.host[1].eth[0].mac "simulated time" 20
scalar StarLAN.host[1].eth[0].mac full-duplex 1
scalar StarLAN.host[1].eth[0].mac "frames/sec sent" 82.1
scalar StarLAN.host[1].eth[0].mac "frames/sec rcvd" 83.9
scalar StarLAN.host[1].eth[0].mac "bits/sec sent" 490526
scalar StarLAN.host[1].eth[0].mac "bits/sec rcvd" 491447.6
scalar StarLAN.host[1].eth[0].mac "rx channel idle (%)" 95.031828
scalar StarLAN.host[1].eth[0].mac "rx channel utilization (%)" 4.968172
scalar StarLAN.host[1].eth[0].mac rxPkFromHL:count 1243
attr interpolationmode none
attr source rxPkFromHL
attr title "packet bytes from higher layer, count"
scalar StarLAN.host[1].eth[0].mac rxPkFromHL:sum(packetBytes) 932616
attr interpolationmode none
attr source rxPkFromHL
attr title "packet bytes from higher layer, sum(packetBytes)"
scalar StarLAN.host[1].eth[0].mac rxPausePkUnits:count 0
attr interpolationmode none
attr title "pause units received, count"
scalar StarLAN.host[1].eth[0].mac rxPausePkUnits:sum 0
attr interpolationmode none
attr title "pause units received, sum"
scalar StarLAN.host[1].eth[0].mac txPausePkUnits:count 0
attr interpolationmode none
attr title "pause units sent, count"
scalar StarLAN.host[1].eth[0].mac txPausePkUnits:sum 0
attr interpolationmode none
attr title "pause units sent, sum"
scalar StarLAN.host[1].eth[0].mac txPk:count 1243
attr interpolationmode none
attr source txPk
attr title "packets transmitted, count"
scalar StarLAN.host[1].eth[0].mac txPk:sum(packetBytes) 932616
attr interpolationmode none
attr source txPk
attr title "packets transmitted, sum(packetBytes)"
scalar StarLAN.host[1].eth[0].mac droppedPkNotForUs:count 0
attr interpolationmode none
attr source dropPkNotForUs
attr title "packets dropped/not for us, count"
scalar StarLAN.host[1].eth[0].mac droppedPkNotForUs:sum(packetBytes) 0
attr interpolationmode none
attr source dropPkNotForUs
attr title "packets dropped/not for us, sum(packetBytes)"
scalar StarLAN.host[1].eth[0].mac droppedPkBitError:count 0
attr interpolationmode none
attr source dropPkBitError
attr title "packets dropped/bit error, count"
scalar StarLAN.host[1].eth[0].mac droppedPkBitError:sum(packetBytes) 0
attr interpolationmode none
attr source dropPkBitError
attr title "packets dropped/bit error, sum(packetBytes)"
scalar StarLAN.host[1].eth[0].mac droppedPkIfaceDown:count 0
attr interpolationmode none
attr source dropPkIfaceDown
attr title "packets dropped/interface down, count"
scalar StarLAN.host[1].eth[0].mac droppedPkIfaceDown:sum(packetBytes) 0
attr interpolationmode none
attr source dropPkIfaceDown
attr title "packets dropped/interface down, sum(packetBytes)"
scalar StarLAN.host[1].eth[0].mac rxPkOk:count 1243
attr interpolationmode none
attr source rxPkOk
attr title "packets received OK, count"
scalar StarLAN.host[1].eth[0].mac rxPkOk:sum(packetBytes) 932616
attr interpolationmode none
attr source rxPkOk
attr title "packets received OK, sum(packetBytes)"
scalar StarLAN.host[1].eth[0].mac passedUpPk:count 1243
attr interpolationmode none
attr source packetSentToUpper
attr title "packets passed to higher layer, count"
scalar StarLAN.host[1].eth[0].mac passedUpPk:sum(packetBytes) 932616
attr interpolationmode none
attr source packetSentToUpper
attr title "packets passed to higher layer, sum(packetBytes)"
scalar StarLAN.host[1].eth[0].encap pauseSent:count 0
attr title "pause sent, count"
scalar StarLAN.host[1].eth[0].encap pauseSent:sum 0
attr title "pause sent, sum"
scalar StarLAN.host[1].eth[0].encap decapPk:count 1243
attr interpolationmode none
attr source decapPk
attr title "packets decapsulated, count"
scalar StarLAN.host[1].eth[0].encap decapPk:sum(packetBytes) 910242
attr interpolationmode none
attr source decapPk
attr title "packets decapsulated, sum(packetBytes)"
scalar StarLAN.host[1].eth[0].encap encapPk:count 1243
attr interpolationmode none
attr source encapPk
attr title "packets encapsulated, count"
scalar StarLAN.host[1].eth[0].encap encapPk:sum(packetBytes) 910242
attr interpolationmode none
attr source encapPk
attr title "packets encapsulated, sum(packetBytes)"
scalar StarLAN.host[1].pingApp[0] "Pings sent" 406
scalar StarLAN.host[1].pingApp[0] "ping loss rate (%)" 0
scalar StarLAN.host[1].pingApp[0] "ping out-of-order rate (%)" 0
scalar StarLAN.host[1].pingApp[0] pingRxSeq:count 307
attr interpolationmode none
attr title "ping rx seq, count"
scalar StarLAN.host[1].pingApp[0] pingTxSeq:count 307
attr interpolationmode none
attr title "ping tx seq, count"
scalar StarLAN.host[1].pingApp[0] numOutOfOrderArrivals:last nan
attr interpolationmode none
attr title "ping out-of-order arrivals, last"
scalar StarLAN.host[1].pingApp[0] numLost:last nan
attr interpolationmode none
attr title "pings lost, last"
scalar StarLAN.host[1].pingApp[0] rtt:mean 0.0023027866394064
attr interpolationmode none
attr title "ping round-trip time, mean"
attr unit s
scalar StarLAN.host[1].pingApp[1] "Pings sent" 380
scalar StarLAN.host[1].pingApp[1] "ping loss rate (%)" 0
scalar StarLAN.host[1].pingApp[1] "ping out-of-order rate (%)" 0
scalar StarLAN.host[1].pingApp[1] pingRxSeq:count 288
attr interpolationmode none
attr title "ping rx seq, count"
scalar StarLAN.host[1].pingApp[1] pingTxSeq:count 288
attr interpolationmode none
attr title "ping tx seq, count"
scalar StarLAN.host[1].pingApp[1] numOutOfOrderArrivals:last nan
attr interpolationmode none
attr title "ping out-of-order arrivals, last"
scalar StarLAN.host[1].pingApp[1] numLost:last nan
attr interpolationmode none
attr title "pings lost, last"
scalar StarLAN.host[1].pingApp[1] rtt:mean 0.0029955344204511
attr interpolationmode none
attr title "ping round-trip time, mean"
attr unit s
scalar StarLAN.host[2].networkLayer.arp sentReply:count 0
attr title "ARP replies sent, count"
scalar StarLAN.host[2].networkLayer.arp sentReq:count 0
attr title "ARP request sent, count"
scalar StarLAN.host[2].networkLayer.arp failedARPResolution:count 0
attr title "ARP failed resolutions, count"
scalar StarLAN.host[2].networkLayer.arp completedARPResolution:count 0
attr title "ARP completed resolutions, count"
scalar StarLAN.host[2].networkLayer.arp initiatedARPResolution:count 0
attr title "ARP initiated resolutions, count"
scalar StarLAN.host[2].lo0.lo droppedPkBitError:count 0
attr interpolationmode none
attr source dropPkBitError
attr title "packets dropped/bit error, count"
scalar StarLAN.host[2].lo0.lo droppedPkBitError:sum(packetBytes) 0
attr interpolationmode none
attr source dropPkBitError
attr title "packets dropped/bit error, sum(packetBytes)"
scalar StarLAN.host[2].lo0.lo rcvdPkFromHL:count 228
attr interpolationmode none
attr source packetReceivedFromUpper
attr title "packets received from higher layer, count"
scalar StarLAN.host[2].lo0.lo rcvdPkFromHL:sum(packetBytes) 173356
attr interpolationmode none
attr source packetReceivedFromUpper
attr title "packets received from higher layer, sum(packetBytes)"
scalar StarLAN.host[2].lo0.lo passedUpPk:count 228
attr interpolationmode none
attr source packetSentToUpper
attr title "packets passed to higher layer, count"
scalar StarLAN.host[2].lo0.lo passedUpPk:sum(packetBytes) 173356
attr interpolationmode none
attr source packetSentToUpper
attr title "packets passed to higher layer, sum(packetBytes)"
scalar StarLAN.host[2].eth[0].queue.pauseQueue queueLength:max nan
attr interpolationmode sample-hold
attr title "queue length, max"
scalar StarLAN.host[2].eth[0].queue.pauseQueue queueLength:timeavg nan
attr interpolationmode sample-hold
attr title "queue length, timeavg"
statistic StarLAN.host[2].eth[0].queue.pauseQueue queueingTime:histogram
field count 0
field mean nan
field stddev nan
field min nan
field max nan
field sum 0
field sqrsum 0
attr interpolationmode none
attr title "queueing time, histogram"
bin	-inf	0
bin	-0.5	0
bin	-0.46666666666667	0
bin	-0.43333333333333	0
bin	-0.4	0
bin	-0.36666666666667	0
bin	-0.33333333333333	0
bin	-0.3	0
bin	-0.26666666666667	0
bin	-0.23333333333333	0
bin	-0.2	0
bin	-0.16666666666667	0
bin	-0.13333333333333	0
bin	-0.1	0
bin	-0.066666666666667	0
bin	-0.033333333333333	0
bin	0	0
bin	0.033333333333333	0
bin	0.066666666666667	0
bin	0.1	0
bin	0.13333333333333	0
bin	0.16666666666667	0
bin	0.2	0
bin	0.23333333333333	0
bin	0.26666666666667	0
bin	0.3	0
bin	0.33333333333333	0
bin	0.36666666666667	0
bin	0.4	0
bin	0.43333333333333	0
bin	0.46666666666667	0
bin	0.5	0
scalar StarLAN.host[2].eth[0].queue.pauseQueue dropPk:count 0
attr interpolationmode none
attr source dropPkByQueue
attr title "dropped packets, count"
scalar StarLAN.host[2].eth[0].queue.pauseQueue dropPk:sum(packetBytes) 0
attr interpolationmode none
attr source dropPkByQueue
attr title "dropped packets, sum(packetBytes)"
scalar StarLAN.host[2].eth[0].queue.pauseQueue rcvdPk:count 0
attr interpolationmode none
attr title "received packets, count"
scalar StarLAN.host[2].eth[0].queue.pauseQueue rcvdPk:sum(packetBytes) 0
attr interpolationmode none
attr title "received packets, sum(packetBytes)"
scalar StarLAN.host[2].eth[0].queue.dataQueue queueLength:max 3
attr interpolationmode sample-hold
attr title "queue length, max"
scalar StarLAN.host[2].eth[0].queue.dataQueue queueLength:timeavg 0.027207923382501
attr interpolationmode sample-hold
attr title "queue length, timeavg"
statistic StarLAN.host[2].eth[0].queue.dataQueue queueingTime:histogram
field count 1500
field mean 0.00027174195651467
field stddev 0.00039907220383823
field min 0
field max 0.001818034215
field sum 0.407612934772
field sqrsum 0.00034949421358621
attr interpolationmode none
attr title "queueing time, histogram"
bin	-inf	0
bin	-0.0004232	0
bin	-0.00036677333333333	0
bin	-0.00031034666666667	0
bin	-0.00025392	0
bin	-0.00019749333333333	0
bin	-0.00014106666666667	0
bin	-8.464e-005	0
bin	-2.8213333333333e-005	1001
bin	2.8213333333333e-005	5
bin	8.464e-005	6
bin	0.00014106666666667	1
bin	0.00019749333333333	5
bin	0.00025392	3
bin	0.00031034666666667	4
bin	0.00036677333333333	5
bin	0.0004232	6
bin	0.00047962666666667	2
bin	0.00053605333333333	4
bin	0.00059248	1
bin	0.00064890666666667	2
bin	0.00070533333333333	0
bin	0.00076176	2
bin	0.00081818666666667	429
bin	0.00087461333333333	1
bin	0.00093104	5
bin	0.00098746666666667	0
bin	0.0010438933333333	4
bin	0.00110032	3
bin	0.0011567466666667	2
bin	0.0012131733333333	1
bin	0.0012696	8
scalar StarLAN.host[2].eth[0].queue.dataQueue dropPk:count 0
attr interpolationmode none
attr source dropPkByQueue
attr title "dropped packets, count"
scalar StarLAN.host[2].eth[0].queue.dataQueue dropPk:sum(packetBytes) 0
attr interpolationmode none
attr source dropPkByQueue
attr title "dropped packets, sum(packetBytes)"
scalar StarLAN.host[2].eth[0].queue.dataQueue rcvdPk:count 1500
attr interpolationmode none
attr title "received packets, count"
scalar StarLAN.host[2].eth[0].queue.dataQueue rcvdPk:sum(packetBytes) 1120478
attr interpolationmode none
attr title "received packets, sum(packetBytes)"
scalar StarLAN.host[2].eth[0].mac "simulated time" 20
scalar StarLAN.host[2].eth[0].mac full-duplex 1
scalar StarLAN.host[2].eth[0].mac "frames/sec sent" 99.55
scalar StarLAN.host[2].eth[0].mac "frames/sec rcvd" 101.35
scalar StarLAN.host[2].eth[0].mac "bits/sec sent" 594466
scalar StarLAN.host[2].eth[0].mac "bits/sec rcvd" 595387.6
scalar StarLAN.host[2].eth[0].mac "rx channel idle (%)" 93.98126
scalar StarLAN.host[2].eth[0].mac "rx channel utilization (%)" 6.01874
scalar StarLAN.host[2].eth[0].mac rxPkFromHL:count 1500
attr interpolationmode none
attr source rxPkFromHL
attr title "packet bytes from higher layer, count"
scalar StarLAN.host[2].eth[0].mac rxPkFromHL:sum(packetBytes) 1120478
attr interpolationmode none
attr source rxPkFromHL
attr title "packet bytes from higher layer, sum(packetBytes)"
scalar StarLAN.host[2].eth[0].mac rxPausePkUnits:count 0
attr interpolationmode none
attr title "pause units received, count"
scalar StarLAN.host[2].eth[0].mac rxPausePkUnits:sum 0
attr interpolationmode none
attr title "pause units received, sum"
scalar StarLAN.host[2].eth[0].mac txPausePkUnits:count 0
attr interpolationmode none
attr title "pause units sent, count"
scalar StarLAN.host[2].eth[0].mac txPausePkUnits:sum 0
attr interpolationmode none
attr title "pause units sent, sum"
scalar StarLAN.host[2].eth[0].mac txPk:count 1500
attr interpolationmode none
attr source txPk
attr title "packets transmitted, count"
scalar StarLAN.host[2].eth[0].mac txPk:sum(packetBytes) 1120478
attr interpolationmode none
attr source txPk
attr title "packets transmitted, sum(packetBytes)"
scalar StarLAN.host[2].eth[0].mac droppedPkNotForUs:count 0
attr interpolationmode none
attr source dropPkNotForUs
attr title "packets dropped/not for us, count"
scalar StarLAN.host[2].eth[0].mac droppedPkNotForUs:sum(packetBytes) 0
attr interpolationmode none
attr source dropPkNotForUs
attr title "packets dropped/not for us, sum(packetBytes)"
scalar StarLAN.host[2].eth[0].mac droppedPkBitError:count 0
attr interpolationmode none
attr source dropPkBitError
attr title "packets dropped/bit error, count"
scalar StarLAN.host[2].eth[0].mac droppedPkBitError:sum(packetBytes) 0
attr interpolationmode none
attr source dropPkBitError
attr title "packets dropped/bit error, sum(packetBytes)"
scalar StarLAN.host[2].eth[0].mac droppedPkIfaceDown:count 0
attr interpolationmode none
attr source dropPkIfaceDown
attr title "packets dropped/interface down, count"
scalar StarLAN.host[2].eth[0].mac droppedPkIfaceDown:sum(packetBytes) 0
attr interpolationmode none
attr source dropPkIfaceDown
attr title "packets dropped/interface down, sum(packetBytes)"
scalar StarLAN.host[2].eth[0].mac rxPkOk:count 1500
attr interpolationmode none
attr source rxPkOk
attr title "packets received OK, count"
scalar StarLAN.host[2].eth[0].mac rxPkOk:sum(packetBytes) 1120478
attr interpolationmode none
attr source rxPkOk
attr title "packets received OK, sum(packetBytes)"
scalar StarLAN.host[2].eth[0].mac passedUpPk:count 1500
attr interpolationmode none
attr source packetSentToUpper
attr title "packets passed to higher layer, count"
scalar StarLAN.host[2].eth[0].mac passedUpPk:sum(packetBytes) 1120478
attr interpolationmode none
attr source packetSentToUpper
attr title "packets passed to higher layer, sum(packetBytes)"
scalar StarLAN.host[2].eth[0].encap pauseSent:count 0
attr title "pause sent, count"
scalar StarLAN.host[2].eth[0].encap pauseSent:sum 0
attr title "pause sent, sum"
scalar StarLAN.host[2].eth[0].encap decapPk:count 1500
attr interpolationmode none
attr source decapPk
attr title "packets decapsulated, count"
scalar StarLAN.host[2].eth[0].encap decapPk:sum(packetBytes) 1093478
attr interpolationmode none
attr source decapPk
attr title "packets decapsulated, sum(packetBytes)"
scalar StarLAN.host[2].eth[0].encap encapPk:count 1500
attr interpolationmode none
attr source encapPk
attr title "packets encapsulated, count"
scalar StarLAN.host[2].eth[0].encap encapPk:sum(packetBytes) 1093478
attr interpolationmode none
attr source encapPk
attr title "packets encapsulated, sum(packetBytes)"
scalar StarLAN.host[2].pingApp[0] "Pings sent" 386
scalar StarLAN.host[2].pingApp[0] "ping loss rate (%)" 0
scalar StarLAN.host[2].pingApp[0] "ping out-of-order rate (%)" 0
scalar StarLAN.host[2].pingApp[0] pingRxSeq:count 288
attr interpolationmode none
attr title "ping rx seq, count"
scalar StarLAN.host[2].pingApp[0] pingTxSeq:count 288
attr interpolationmode none
attr title "ping tx seq, count"
scalar StarLAN.host[2].pingApp[0] numOutOfOrderArrivals:last nan
attr interpolationmode none
attr title "ping out-of-order arrivals, last"
scalar StarLAN.host[2].pingApp[0] numLost:last nan
attr interpolationmode none
attr title "pings lost, last"
scalar StarLAN.host[2].pingApp[0] rtt:mean 0.00295535788072
attr interpolationmode none
attr title "ping round-trip time, mean"
attr unit s
scalar StarLAN.host[2].pingApp[1] "Pings sent" 400
scalar StarLAN.host[2].pingApp[1] "ping loss rate (%)" 0
scalar StarLAN.host[2].pingApp[1] "ping out-of-order rate (%)" 0
scalar StarLAN.host[2].pingApp[1] pingRxSeq:count 297
attr interpolationmode none
attr title "ping rx seq, count"
scalar StarLAN.host[2].pingApp[1] pingTxSeq:count 297
attr interpolationmode none
attr title "ping tx seq, count"
scalar StarLAN.host[2].pingApp[1] numOutOfOrderArrivals:last nan
attr interpolationmode none
attr title "ping out-of-order arrivals, last"
scalar StarLAN.host[2].pingApp[1] numLost:last nan
attr interpolationmode none
attr title "pings lost, last"
scalar StarLAN.host[2].pingApp[1] rtt:mean 0.0041331589882124
attr interpolationmode none
attr title "ping round-trip time, mean"
attr unit s
scalar StarLAN.host[3].networkLayer.arp sentReply:count 0
attr title "ARP replies sent, count"
scalar StarLAN.host[3].networkLayer.arp sentReq:count 0
attr title "ARP request sent, count"
scalar StarLAN.host[3].networkLayer.arp failedARPResolution:count 0
attr title "ARP failed resolutions, count"
scalar StarLAN.host[3].networkLayer.arp completedARPResolution:count 0
attr title "ARP completed resolutions, count"
scalar StarLAN.host[3].networkLayer.arp initiatedARPResolution:count 0
attr title "ARP initiated resolutions, count"
scalar StarLAN.host[3].lo0.lo droppedPkBitError:count 0
attr interpolationmode none
attr source dropPkBitError
attr title "packets dropped/bit error, count"
scalar StarLAN.host[3].lo0.lo droppedPkBitError:sum(packetBytes) 0
attr interpolationmode none
attr source dropPkBitError
attr title "packets dropped/bit error, sum(packetBytes)"
scalar StarLAN.host[3].lo0.lo rcvdPkFromHL:count 130
attr interpolationmode none
attr source packetReceivedFromUpper
attr title "packets received from higher layer, count"
scalar StarLAN.host[3].lo0.lo rcvdPkFromHL:sum(packetBytes) 95914
attr interpolationmode none
attr source packetReceivedFromUpper
attr title "packets received from higher layer, sum(packetBytes)"
scalar StarLAN.host[3].lo0.lo passedUpPk:count 130
attr interpolationmode none
attr source packetSentToUpper
attr title "packets passed to higher layer, count"
scalar StarLAN.host[3].lo0.lo passedUpPk:sum(packetBytes) 95914
attr interpolationmode none
attr source packetSentToUpper
attr title "packets passed to higher layer, sum(packetBytes)"
scalar StarLAN.host[3].eth[0].queue.pauseQueue queueLength:max nan
attr interpolationmode sample-hold
attr title "queue length, max"
scalar StarLAN.host[3].eth[0].queue.pauseQueue queueLength:timeavg nan
attr interpolationmode sample-hold
attr title "queue length, timeavg"
statistic StarLAN.host[3].eth[0].queue.pauseQueue queueingTime:histogram
field count 0
field mean nan
field stddev nan
field min nan
field max nan
field sum 0
field sqrsum 0
attr interpolationmode none
attr title "queueing time, histogram"
bin	-inf	0
bin	-0.5	0
bin	-0.46666666666667	0
bin	-0.43333333333333	0
bin	-0.4	0
bin	-0.36666666666667	0
bin	-0.33333333333333	0
bin	-0.3	0
bin	-0.26666666666667	0
bin	-0.23333333333333	0
bin	-0.2	0
bin	-0.16666666666667	0
bin	-0.13333333333333	0
bin	-0.1	0
bin	-0.066666666666667	0
bin	-0.033333333333333	0
bin	0	0
bin	0.033333333333333	0
bin	0.066666666666667	0
bin	0.1	0
bin	0.13333333333333	0
bin	0.16666666666667	0
bin	0.2	0
bin	0.23333333333333	0
bin	0.26666666666667	0
bin	0.3	0
bin	0.33333333333333	0
bin	0.36666666666667	0
bin	0.4	0
bin	0.43333333333333	0
bin	0.46666666666667	0
bin	0.5	0
scalar StarLAN.host[3].eth[0].queue.pauseQueue dropPk:count 0
attr interpolationmode none
attr source dropPkByQueue
attr title "dropped packets, count"
scalar StarLAN.host[3].eth[0].queue.pauseQueue dropPk:sum(packetBytes) 0
attr interpolationmode none
attr source dropPkByQueue
attr title "dropped packets, sum(packetBytes)"
scalar StarLAN.host[3].eth[0].queue.pauseQueue rcvdPk:count 0
attr interpolationmode none
attr title "received packets, count"
scalar StarLAN.host[3].eth[0].queue.pauseQueue rcvdPk:sum(packetBytes) 0
attr interpolationmode none
attr title "received packets, sum(packetBytes)"
scalar StarLAN.host[3].eth[0].queue.dataQueue queueLength:max 4
attr interpolationmode sample-hold
attr title "queue length, max"
scalar StarLAN.host[3].eth[0].queue.dataQueue queueLength:timeavg 0.012827267293714
attr interpolationmode sample-hold
attr title "queue length, timeavg"
statistic StarLAN.host[3].eth[0].queue.dataQueue queueingTime:histogram
field count 1239
field mean 0.00015521943110089
field stddev 0.00033437606475715
field min 0
field max 0.0018112
field sum 0.192316875134
field sqrsum 0.00016826881857031
attr interpolationmode none
attr title "queueing time, histogram"
bin	-inf	0
bin	-0.0004232	0
bin	-0.00036677333333333	0
bin	-0.00031034666666667	0
bin	-0.00025392	0
bin	-0.00019749333333333	0
bin	-0.00014106666666667	0
bin	-8.464e-005	0
bin	-2.8213333333333e-005	1003
bin	2.8213333333333e-005	1
bin	8.464e-005	1
bin	0.00014106666666667	2
bin	0.00019749333333333	3
bin	0.00025392	5
bin	0.00031034666666667	1
bin	0.00036677333333333	6
bin	0.0004232	1
bin	0.00047962666666667	3
bin	0.00053605333333333	5
bin	0.00059248	2
bin	0.00064890666666667	4
bin	0.00070533333333333	2
bin	0.00076176	0
bin	0.00081818666666667	182
bin	0.00087461333333333	2
bin	0.00093104	1
bin	0.00098746666666667	3
bin	0.0010438933333333	0
bin	0.00110032	1
bin	0.0011567466666667	2
bin	0.0012131733333333	1
bin	0.0012696	8
scalar StarLAN.host[3].eth[0].queue.dataQueue dropPk:count 0
attr interpolationmode none
attr source dropPkByQueue
attr title "dropped packets, count"
scalar StarLAN.host[3].eth[0].queue.dataQueue dropPk:sum(packetBytes) 0
attr interpolationmode none
attr source dropPkByQueue
attr title "dropped packets, sum(packetBytes)"
scalar StarLAN.host[3].eth[0].queue.dataQueue rcvdPk:count 1239
attr interpolationmode none
attr title "received packets, count"
scalar StarLAN.host[3].eth[0].queue.dataQueue rcvdPk:sum(packetBytes) 907846
attr interpolationmode none
attr title "received packets, sum(packetBytes)"
scalar StarLAN.host[3].eth[0].mac "simulated time" 20
scalar StarLAN.host[3].eth[0].mac full-duplex 1
scalar StarLAN.host[3].eth[0].mac "frames/sec sent" 82.35
scalar StarLAN.host[3].eth[0].mac "frames/sec rcvd" 84.15
scalar StarLAN.host[3].eth[0].mac "bits/sec sent" 480346
scalar StarLAN.host[3].eth[0].mac "bits/sec rcvd" 481267.6
scalar StarLAN.host[3].eth[0].mac "rx channel idle (%)" 95.133468
scalar StarLAN.host[3].eth[0].mac "rx channel utilization (%)" 4.866532
scalar StarLAN.host[3].eth[0].mac rxPkFromHL:count 1239
attr interpolationmode none
attr source rxPkFromHL
attr title "packet bytes from higher layer, count"
scalar StarLAN.host[3].eth[0].mac rxPkFromHL:sum(packetBytes) 907846
attr interpolationmode none
attr source rxPkFromHL
attr title "packet bytes from higher layer, sum(packetBytes)"
scalar StarLAN.host[3].eth[0].mac rxPausePkUnits:count 0
attr interpolationmode none
attr title "pause units received, count"
scalar StarLAN.host[3].eth[0].mac rxPausePkUnits:sum 0
attr interpolationmode none
attr title "pause units received, sum"
scalar StarLAN.host[3].eth[0].mac txPausePkUnits:count 0
attr interpolationmode none
attr title "pause units sent, count"
scalar StarLAN.host[3].eth[0].mac txPausePkUnits:sum 0
attr interpolationmode none
attr title "pause units sent, sum"
scalar StarLAN.host[3].eth[0].mac txPk:count 1239
attr interpolationmode none
attr source txPk
attr title "packets transmitted, count"
scalar StarLAN.host[3].eth[0].mac txPk:sum(packetBytes) 907846
attr interpolationmode none
attr source txPk
attr title "packets transmitted, sum(packetBytes)"
scalar StarLAN.host[3].eth[0].mac droppedPkNotForUs:count 0
attr interpolationmode none
attr source dropPkNotForUs
attr title "packets dropped/not for us, count"
scalar StarLAN.host[3].eth[0].mac droppedPkNotForUs:sum(packetBytes) 0
attr interpolationmode none
attr source dropPkNotForUs
attr title "packets dropped/not for us, sum(packetBytes)"
scalar StarLAN.host[3].eth[0].mac droppedPkBitError:count 0
attr interpolationmode none
attr source dropPkBitError
attr title "packets dropped/bit error, count"
scalar StarLAN.host[3].eth[0].mac droppedPkBitError:sum(packetBytes) 0
attr interpolationmode none
attr source dropPkBitError
attr title "packets dropped/bit error, sum(packetBytes)"
scalar StarLAN.host[3].eth[0].mac droppedPkIfaceDown:count 0
attr interpolationmode none
attr source dropPkIfaceDown
attr title "packets dropped/interface down, count"
scalar StarLAN.host[3].eth[0].mac droppedPkIfaceDown:sum(packetBytes) 0
attr interpolationmode none
attr source dropPkIfaceDown
attr title "packets dropped/interface down, sum(packetBytes)"
scalar StarLAN.host[3].eth[0].mac rxPkOk:count 1239
attr interpolationmode none
attr source rxPkOk
attr title "packets received OK, count"
scalar StarLAN.host[3].eth[0].mac rxPkOk:sum(packetBytes) 907846
attr interpolationmode none
attr source rxPkOk
attr title "packets received OK, sum(packetBytes)"
scalar StarLAN.host[3].eth[0].mac passedUpPk:count 1239
attr interpolationmode none
attr source packetSentToUpper
attr title "packets passed to higher layer, count"
scalar StarLAN.host[3].eth[0].mac passedUpPk:sum(packetBytes) 907846
attr interpolationmode none
attr source packetSentToUpper
attr title "packets passed to higher layer, sum(packetBytes)"
scalar StarLAN.host[3].eth[0].encap pauseSent:count 0
attr title "pause sent, count"
scalar StarLAN.host[3].eth[0].encap pauseSent:sum 0
attr title "pause sent, sum"
scalar StarLAN.host[3].eth[0].encap decapPk:count 1239
attr interpolationmode none
attr source decapPk
attr title "packets decapsulated, count"
scalar StarLAN.host[3].eth[0].encap decapPk:sum(packetBytes) 885544
attr interpolationmode none
attr source decapPk
attr title "packets decapsulated, sum(packetBytes)"
scalar StarLAN.host[3].eth[0].encap encapPk:count 1239
attr interpolationmode none
attr source encapPk
attr title "packets encapsulated, count"
scalar StarLAN.host[3].eth[0].encap encapPk:sum(packetBytes) 885544
attr interpolationmode none
attr source encapPk
attr title "packets encapsulated, sum(packetBytes)"
scalar StarLAN.host[3].pingApp[0] "Pings sent" 385
scalar StarLAN.host[3].pingApp[0] "ping loss rate (%)" 0
scalar StarLAN.host[3].pingApp[0] "ping out-of-order rate (%)" 0
scalar StarLAN.host[3].pingApp[0] pingRxSeq:count 292
attr interpolationmode none
attr title "ping rx seq, count"
scalar StarLAN.host[3].pingApp[0] pingTxSeq:count 292
attr interpolationmode none
attr title "ping tx seq, count"
scalar StarLAN.host[3].pingApp[0] numOutOfOrderArrivals:last nan
attr interpolationmode none
attr title "ping out-of-order arrivals, last"
scalar StarLAN.host[3].pingApp[0] numLost:last nan
attr interpolationmode none
attr title "pings lost, last"
scalar StarLAN.host[3].pingApp[0] rtt:mean 0.0018748347974054
attr interpolationmode none
attr title "ping round-trip time, mean"
attr unit s
scalar StarLAN.host[3].pingApp[1] "Pings sent" 415
scalar StarLAN.host[3].pingApp[1] "ping loss rate (%)" 0
scalar StarLAN.host[3].pingApp[1] "ping out-of-order rate (%)" 0
scalar StarLAN.host[3].pingApp[1] pingRxSeq:count 322
attr interpolationmode none
attr title "ping rx seq, count"
scalar StarLAN.host[3].pingApp[1] pingTxSeq:count 322
attr interpolationmode none
attr title "ping tx seq, count"
scalar StarLAN.host[3].pingApp[1] numOutOfOrderArrivals:last nan
attr interpolationmode none
attr title "ping out-of-order arrivals, last"
scalar StarLAN.host[3].pingApp[1] numLost:last nan
attr interpolationmode none
attr title "pings lost, last"
scalar StarLAN.host[3].pingApp[1] rtt:mean 0.0031989535966276
attr interpolationmode none
attr title "ping round-trip time, mean"
attr unit s
scalar StarLAN.host[4].networkLayer.arp sentReply:count 0
attr title "ARP replies sent, count"
scalar StarLAN.host[4].networkLayer.arp sentReq:count 0
attr title "ARP request sent, count"
scalar StarLAN.host[4].networkLayer.arp failedARPResolution:count 0
attr title "ARP failed resolutions, count"
scalar StarLAN.host[4].networkLayer.arp completedARPResolution:count 0
attr title "ARP completed resolutions, count"
scalar StarLAN.host[4].networkLayer.arp initiatedARPResolution:count 0
attr title "ARP initiated resolutions, count"
scalar StarLAN.host[4].lo0.lo droppedPkBitError:count 0
attr interpolationmode none
attr source dropPkBitError
attr title "packets dropped/bit error, count"
scalar StarLAN.host[4].lo0.lo droppedPkBitError:sum(packetBytes) 0
attr interpolationmode none
attr source dropPkBitError
attr title "packets dropped/bit error, sum(packetBytes)"
scalar StarLAN.host[4].lo0.lo rcvdPkFromHL:count 166
attr interpolationmode none
attr source packetReceivedFromUpper
attr title "packets received from higher layer, count"
scalar StarLAN.host[4].lo0.lo rcvdPkFromHL:sum(packetBytes) 143938
attr interpolationmode none
attr source packetReceivedFromUpper
attr title "packets received from higher layer, sum(packetBytes)"
scalar StarLAN.host[4].lo0.lo passedUpPk:count 166
attr interpolationmode none
attr source packetSentToUpper
attr title "packets passed to higher layer, count"
scalar StarLAN.host[4].lo0.lo passedUpPk:sum(packetBytes) 143938
attr interpolationmode none
attr source packetSentToUpper
attr title "packets passed to higher layer, sum(packetBytes)"
scalar StarLAN.host[4].eth[0].queue.pauseQueue queueLength:max nan
attr interpolationmode sample-hold
attr title "queue length, max"
scalar StarLAN.host[4].eth[0].queue.pauseQueue queueLength:timeavg nan
attr interpolationmode sample-hold
attr title "queue length, timeavg"
statistic StarLAN.host[4].eth[0].queue.pauseQueue queueingTime:histogram
field count 0
field mean nan
field stddev nan
field min nan
field max nan
field sum 0
field sqrsum 0
attr interpolationmode none
attr title "queueing time, histogram"
bin	-inf	0
bin	-0.5	0
bin	-0.46666666666667	0
bin	-0.43333333333333	0
bin	-0.4	0
bin	-0.36666666666667	0
bin	-0.33333333333333	0
bin	-0.3	0
bin	-0.26666666666667	0
bin	-0.23333333333333	0
bin	-0.2	0
bin	-0.16666666666667	0
bin	-0.13333333333333	0
bin	-0.1	0
bin	-0.066666666666667	0
bin	-0.033333333333333	0
bin	0	0
bin	0.033333333333333	0
bin	0.066666666666667	0
bin	0.1	0
bin	0.13333333333333	0
bin	0.16666666666667	0
bin	0.2	0
bin	0.23333333333333	0
bin	0.26666666666667	0
bin	0.3	0
bin	0.33333333333333	0
bin	0.36666666666667	0
bin	0.4	0
bin	0.43333333333333	0
bin	0.46666666666667	0
bin	0.5	0
scalar StarLAN.host[4].eth[0].queue.pauseQueue dropPk:count 0
attr interpolationmode none
attr source dropPkByQueue
attr title "dropped packets, count"
scalar StarLAN.host[4].eth[0].queue.pauseQueue dropPk:sum(packetBytes) 0
attr interpolationmode none
attr source dropPkByQueue
attr title "dropped packets, sum(packetBytes)"
scalar StarLAN.host[4].eth[0].queue.pauseQueue rcvdPk:count 0
attr interpolationmode none
attr title "received packets, count"
scalar StarLAN.host[4].eth[0].queue.pauseQueue rcvdPk:sum(packetBytes) 0
attr interpolationmode none
attr title "received packets, sum(packetBytes)"
scalar StarLAN.host[4].eth[0].queue.dataQueue queueLength:max 3
attr interpolationmode sample-hold
attr title "queue length, max"
scalar StarLAN.host[4].eth[0].queue.dataQueue queueLength:timeavg 0.025835165434361
attr interpolationmode sample-hold
attr title "queue length, timeavg"
statistic StarLAN.host[4].eth[0].queue.dataQueue queueingTime:histogram
field count 1495
field mean 0.00025879513993713
field stddev 0.00039755779118609
field min 0
field max 0.00194547475
field sum 0.386898734206
field sqrsum 0.00033625749487549
attr interpolationmode none
attr title "queueing time, histogram"
bin	-inf	0
bin	-0.000809025629	0
bin	-0.00070115554513333	0
bin	-0.00059328546126667	0
bin	-0.0004854153774	0
bin	-0.00037754529353333	0
bin	-0.00026967520966667	0
bin	-0.0001618051258	0
bin	-5.3935041933333e-005	1029
bin	5.3935041933333e-005	8
bin	0.0001618051258	3
bin	0.00026967520966667	7
bin	0.00037754529353333	9
bin	0.0004854153774	2
bin	0.00059328546126667	6
bin	0.00070115554513333	3
bin	0.000809025629	407
bin	0.00091689571286667	7
bin	0.0010247657967333	2
bin	0.0011326358806	2
bin	0.0012405059644667	2
bin	0.0013483760483333	2
bin	0.0014562461322	2
bin	0.0015641162160667	1
bin	0.0016719862999333	1
bin	0.0017798563838	1
bin	0.0018877264676667	1
bin	0.0019955965515333	0
bin	0.0021034666354	0
bin	0.0022113367192667	0
bin	0.0023192068031333	0
bin	0.002427076887	0
scalar StarLAN.host[4].eth[0].queue.dataQueue dropPk:count 0
attr interpolationmode none
attr source dropPkByQueue
attr title "dropped packets, count"
scalar StarLAN.host[4].eth[0].queue.dataQueue dropPk:sum(packetBytes) 0
attr interpolationmode none
attr source dropPkByQueue
attr title "dropped packets, sum(packetBytes)"
scalar StarLAN.host[4].eth[0].queue.dataQueue rcvdPk:count 1495
attr interpolationmode none
attr title "received packets, count"
scalar StarLAN.host[4].eth[0].queue.dataQueue rcvdPk:sum(packetBytes) 1200985
attr interpolationmode none
attr title "received packets, sum(packetBytes)"
scalar StarLAN.host[4].eth[0].mac "simulated time" 20
scalar StarLAN.host[4].eth[0].mac full-duplex 1
scalar StarLAN.host[4].eth[0].mac "frames/sec sent" 96.75
scalar StarLAN.host[4].eth[0].mac "frames/sec rcvd" 98.5
scalar StarLAN.host[4].eth[0].mac "bits/sec sent" 616142.8
scalar StarLAN.host[4].eth[0].mac "bits/sec rcvd" 616664.8
scalar StarLAN.host[4].eth[0].mac "rx channel idle (%)" 93.770312
scalar StarLAN.host[4].eth[0].mac "rx channel utilization (%)" 6.229688
scalar StarLAN.host[4].eth[0].mac rxPkFromHL:count 1495
attr interpolationmode none
attr source rxPkFromHL
attr title "packet bytes from higher layer, count"
scalar StarLAN.host[4].eth[0].mac rxPkFromHL:sum(packetBytes) 1200985
attr interpolationmode none
attr source rxPkFromHL
attr title "packet bytes from higher layer, sum(packetBytes)"
scalar StarLAN.host[4].eth[0].mac rxPausePkUnits:count 0
attr interpolationmode none
attr title "pause units received, count"
scalar StarLAN.host[4].eth[0].mac rxPausePkUnits:sum 0
attr interpolationmode none
attr title "pause units received, sum"
scalar StarLAN.host[4].eth[0].mac txPausePkUnits:count 0
attr interpolationmode none
attr title "pause units sent, count"
scalar StarLAN.host[4].eth[0].mac txPausePkUnits:sum 0
attr interpolationmode none
attr title "pause units sent, sum"
scalar StarLAN.host[4].eth[0].mac txPk:count 1495
attr interpolationmode none
attr source txPk
attr title "packets transmitted, count"
scalar StarLAN.host[4].eth[0].mac txPk:sum(packetBytes) 1200985
attr interpolationmode none
attr source txPk
attr title "packets transmitted, sum(packetBytes)"
scalar StarLAN.host[4].eth[0].mac droppedPkNotForUs:count 0
attr interpolationmode none
attr source dropPkNotForUs
attr title "packets dropped/not for us, count"
scalar StarLAN.host[4].eth[0].mac droppedPkNotForUs:sum(packetBytes) 0
attr interpolationmode none
attr source dropPkNotForUs
attr title "packets dropped/not for us, sum(packetBytes)"
scalar StarLAN.host[4].eth[0].mac droppedPkBitError:count 0
attr interpolationmode none
attr source dropPkBitError
attr title "packets dropped/bit error, count"
scalar StarLAN.host[4].eth[0].mac droppedPkBitError:sum(packetBytes) 0
attr interpolationmode none
attr source dropPkBitError
attr title "packets dropped/bit error, sum(packetBytes)"
scalar StarLAN.host[4].eth[0].mac droppedPkIfaceDown:count 0
attr interpolationmode none
attr source dropPkIfaceDown
attr title "packets dropped/interface down, count"
scalar StarLAN.host[4].eth[0].mac droppedPkIfaceDown:sum(packetBytes) 0
attr interpolationmode none
attr source dropPkIfaceDown
attr title "packets dropped/interface down, sum(packetBytes)"
scalar StarLAN.host[4].eth[0].mac rxPkOk:count 1495
attr interpolationmode none
attr source rxPkOk
attr title "packets received OK, count"
scalar StarLAN.host[4].eth[0].mac rxPkOk:sum(packetBytes) 1200985
attr interpolationmode none
attr source rxPkOk
attr title "packets received OK, sum(packetBytes)"
scalar StarLAN.host[4].eth[0].mac passedUpPk:count 1495
attr interpolationmode none
attr source packetSentToUpper
attr title "packets passed to higher layer, count"
scalar StarLAN.host[4].eth[0].mac passedUpPk:sum(packetBytes) 1200985
attr interpolationmode none
attr source packetSentToUpper
attr title "packets passed to higher layer, sum(packetBytes)"
scalar StarLAN.host[4].eth[0].encap pauseSent:count 0
attr title "pause sent, count"
scalar StarLAN.host[4].eth[0].encap pauseSent:sum 0
attr title "pause sent, sum"
scalar StarLAN.host[4].eth[0].encap decapPk:count 1495
attr interpolationmode none
attr source decapPk
attr title "packets decapsulated, count"
scalar StarLAN.host[4].eth[0].encap decapPk:sum(packetBytes) 1174075
attr interpolationmode none
attr source decapPk
attr title "packets decapsulated, sum(packetBytes)"
scalar StarLAN.host[4].eth[0].encap encapPk:count 1495
attr interpolationmode none
attr source encapPk
attr title "packets encapsulated, count"
scalar StarLAN.host[4].eth[0].encap encapPk:sum(packetBytes) 1174075
attr interpolationmode none
attr source encapPk
attr title "packets encapsulated, sum(packetBytes)"
scalar StarLAN.host[4].pingApp[0] "Pings sent" 380
scalar StarLAN.host[4].pingApp[0] "ping loss rate (%)" 0.26315789473684
scalar StarLAN.host[4].pingApp[0] "ping out-of-order rate (%)" 0.26315789473684
scalar StarLAN.host[4].pingApp[0] pingRxSeq:count 290
attr interpolationmode none
attr title "ping rx seq, count"
scalar StarLAN.host[4].pingApp[0] pingTxSeq:count 290
attr interpolationmode none
attr title "ping tx seq, count"
scalar StarLAN.host[4].pingApp[0] numOutOfOrderArrivals:last 1
attr interpolationmode none
attr title "ping out-of-order arrivals, last"
scalar StarLAN.host[4].pingApp[0] numLost:last 0
attr interpolationmode none
attr title "pings lost, last"
scalar StarLAN.host[4].pingApp[0] rtt:mean 0.0033399139176679
attr interpolationmode none
attr title "ping round-trip time, mean"
attr unit s
scalar StarLAN.host[4].pingApp[1] "Pings sent" 377
scalar StarLAN.host[4].pingApp[1] "ping loss rate (%)" 0
scalar StarLAN.host[4].pingApp[1] "ping out-of-order rate (%)" 0
scalar StarLAN.host[4].pingApp[1] pingRxSeq:count 288
attr interpolationmode none
attr title "ping rx seq, count"
scalar StarLAN.host[4].pingApp[1] pingTxSeq:count 288
attr interpolationmode none
attr title "ping tx seq, count"
scalar StarLAN.host[4].pingApp[1] numOutOfOrderArrivals:last nan
attr interpolationmode none
attr title "ping out-of-order arrivals, last"
scalar StarLAN.host[4].pingApp[1] numLost:last nan
attr interpolationmode none
attr title "pings lost, last"
scalar StarLAN.host[4].pingApp[1] rtt:mean 0.0045066450044093
attr interpolationmode none
attr title "ping round-trip time, mean"
attr unit s
scalar StarLAN.host[5].networkLayer.arp sentReply:count 0
attr title "ARP replies sent, count"
scalar StarLAN.host[5].networkLayer.arp sentReq:count 0
attr title "ARP request sent, count"
scalar StarLAN.host[5].networkLayer.arp failedARPResolution:count 0
attr title "ARP failed resolutions, count"
scalar StarLAN.host[5].networkLayer.arp completedARPResolution:count 0
attr title "ARP completed resolutions, count"
scalar StarLAN.host[5].networkLayer.arp initiatedARPResolution:count 0
attr title "ARP initiated resolutions, count"
scalar StarLAN.host[5].lo0.lo droppedPkBitError:count 0
attr interpolationmode none
attr source dropPkBitError
attr title "packets dropped/bit error, count"
scalar StarLAN.host[5].lo0.lo droppedPkBitError:sum(packetBytes) 0
attr interpolationmode none
attr source dropPkBitError
attr title "packets dropped/bit error, sum(packetBytes)"
scalar StarLAN.host[5].lo0.lo rcvdPkFromHL:count 198
attr interpolationmode none
attr source packetReceivedFromUpper
attr title "packets received from higher layer, count"
scalar StarLAN.host[5].lo0.lo rcvdPkFromHL:sum(packetBytes) 133828
attr interpolationmode none
attr source packetReceivedFromUpper
attr title "packets received from higher layer, sum(packetBytes)"
scalar StarLAN.host[5].lo0.lo passedUpPk:count 198
attr interpolationmode none
attr source packetSentToUpper
attr title "packets passed to higher layer, count"
scalar StarLAN.host[5].lo0.lo passedUpPk:sum(packetBytes) 133828
attr interpolationmode none
attr source packetSentToUpper
attr title "packets passed to higher layer, sum(packetBytes)"
scalar StarLAN.host[5].eth[0].queue.pauseQueue queueLength:max nan
attr interpolationmode sample-hold
attr title "queue length, max"
scalar StarLAN.host[5].eth[0].queue.pauseQueue queueLength:timeavg nan
attr interpolationmode sample-hold
attr title "queue length, timeavg"
statistic StarLAN.host[5].eth[0].queue.pauseQueue queueingTime:histogram
field count 0
field mean nan
field stddev nan
field min nan
field max nan
field sum 0
field sqrsum 0
attr interpolationmode none
attr title "queueing time, histogram"
bin	-inf	0
bin	-0.5	0
bin	-0.46666666666667	0
bin	-0.43333333333333	0
bin	-0.4	0
bin	-0.36666666666667	0
bin	-0.33333333333333	0
bin	-0.3	0
bin	-0.26666666666667	0
bin	-0.23333333333333	0
bin	-0.2	0
bin	-0.16666666666667	0
bin	-0.13333333333333	0
bin	-0.1	0
bin	-0.066666666666667	0
bin	-0.033333333333333	0
bin	0	0
bin	0.033333333333333	0
bin	0.066666666666667	0
bin	0.1	0
bin	0.13333333333333	0
bin	0.16666666666667	0
bin	0.2	0
bin	0.23333333333333	0
bin	0.26666666666667	0
bin	0.3	0
bin	0.33333333333333	0
bin	0.36666666666667	0
bin	0.4	0
bin	0.43333333333333	0
bin	0.46666666666667	0
bin	0.5	0
scalar StarLAN.host[5].eth[0].queue.pauseQueue dropPk:count 0
attr interpolationmode none
attr source dropPkByQueue
attr title "dropped packets, count"
scalar StarLAN.host[5].eth[0].queue.pauseQueue dropPk:sum(packetBytes) 0
attr interpolationmode none
attr source dropPkByQueue
attr title "dropped packets, sum(packetBytes)"
scalar StarLAN.host[5].eth[0].queue.pauseQueue rcvdPk:count 0
attr interpolationmode none
attr title "received packets, count"
scalar StarLAN.host[5].eth[0].queue.pauseQueue rcvdPk:sum(packetBytes) 0
attr interpolationmode none
attr title "received packets, sum(packetBytes)"
scalar StarLAN.host[5].eth[0].queue.dataQueue queueLength:max 3
attr interpolationmode sample-hold
attr title "queue length, max"
scalar StarLAN.host[5].eth[0].queue.dataQueue queueLength:timeavg 0.026541269184379
attr interpolationmode sample-hold
attr title "queue length, timeavg"
statistic StarLAN.host[5].eth[0].queue.dataQueue queueingTime:histogram
field count 1502
field mean 0.00026491654877763
field stddev 0.00039667939015002
field min 0
field max 0.001736899718
field sum 0.397904656264
field sqrsum 0.00034160069067327
attr interpolationmode none
attr title "queueing time, histogram"
bin	-inf	0
bin	-0.000868449859	0
bin	-0.00075265654446667	0
bin	-0.00063686322993333	0
bin	-0.0005210699154	0
bin	-0.00040527660086667	0
bin	-0.00028948328633333	0
bin	-0.0001736899718	0
bin	-5.7896657266667e-005	1020
bin	5.7896657266667e-005	9
bin	0.0001736899718	8
bin	0.00028948328633333	6
bin	0.00040527660086667	5
bin	0.0005210699154	3
bin	0.00063686322993333	3
bin	0.00075265654446667	420
bin	0.000868449859	11
bin	0.00098424317353333	4
bin	0.0011000364880667	6
bin	0.0012158298026	3
bin	0.0013316231171333	2
bin	0.0014474164316667	1
bin	0.0015632097462	0
bin	0.0016790030607333	1
bin	0.0017947963752667	0
bin	0.0019105896898	0
bin	0.0020263830043333	0
bin	0.0021421763188667	0
bin	0.0022579696334	0
bin	0.0023737629479333	0
bin	0.0024895562624667	0
bin	0.002605349577	0
scalar StarLAN.host[5].eth[0].queue.dataQueue dropPk:count 0
attr interpolationmode none
attr source dropPkByQueue
attr title "dropped packets, count"
scalar StarLAN.host[5].eth[0].queue.dataQueue dropPk:sum(packetBytes) 0
attr interpolationmode none
attr source dropPkByQueue
attr title "dropped packets, sum(packetBytes)"
scalar StarLAN.host[5].eth[0].queue.dataQueue rcvdPk:count 1502
attr interpolationmode none
attr title "received packets, count"
scalar StarLAN.host[5].eth[0].queue.dataQueue rcvdPk:sum(packetBytes) 1060476
attr interpolationmode none
attr title "received packets, sum(packetBytes)"
scalar StarLAN.host[5].eth[0].mac "simulated time" 20
scalar StarLAN.host[5].eth[0].mac full-duplex 1
scalar StarLAN.host[5].eth[0].mac "frames/sec sent" 98.65
scalar StarLAN.host[5].eth[0].mac "frames/sec rcvd" 100.45
scalar StarLAN.host[5].eth[0].mac "bits/sec sent" 554237.6
scalar StarLAN.host[5].eth[0].mac "bits/sec rcvd" 555159.2
scalar StarLAN.host[5].eth[0].mac "rx channel idle (%)" 94.38412
scalar StarLAN.host[5].eth[0].mac "rx channel utilization (%)" 5.61588
scalar StarLAN.host[5].eth[0].mac rxPkFromHL:count 1502
attr interpolationmode none
attr source rxPkFromHL
attr title "packet bytes from higher layer, count"
scalar StarLAN.host[5].eth[0].mac rxPkFromHL:sum(packetBytes) 1060476
attr interpolationmode none
attr source rxPkFromHL
attr title "packet bytes from higher layer, sum(packetBytes)"
scalar StarLAN.host[5].eth[0].mac rxPausePkUnits:count 0
attr interpolationmode none
attr title "pause units received, count"
scalar StarLAN.host[5].eth[0].mac rxPausePkUnits:sum 0
attr interpolationmode none
attr title "pause units received, sum"
scalar StarLAN.host[5].eth[0].mac txPausePkUnits:count 0
attr interpolationmode none
attr title "pause units sent, count"
scalar StarLAN.host[5].eth[0].mac txPausePkUnits:sum 0
attr interpolationmode none
attr title "pause units sent, sum"
scalar StarLAN.host[5].eth[0].mac txPk:count 1502
attr interpolationmode none
attr source txPk
attr title "packets transmitted, count"
scalar StarLAN.host[5].eth[0].mac txPk:sum(packetBytes) 1060476
attr interpolationmode none
attr source txPk
attr title "packets transmitted, sum(packetBytes)"
scalar StarLAN.host[5].eth[0].mac droppedPkNotForUs:count 0
attr interpolationmode none
attr source dropPkNotForUs
attr title "packets dropped/not for us, count"
scalar StarLAN.host[5].eth[0].mac droppedPkNotForUs:sum(packetBytes) 0
attr interpolationmode none
attr source dropPkNotForUs
attr title "packets dropped/not for us, sum(packetBytes)"
scalar StarLAN.host[5].eth[0].mac droppedPkBitError:count 0
attr interpolationmode none
attr source dropPkBitError
attr title "packets dropped/bit error, count"
scalar StarLAN.host[5].eth[0].mac droppedPkBitError:sum(packetBytes) 0
attr interpolationmode none
attr source dropPkBitError
attr title "packets dropped/bit error, sum(packetBytes)"
scalar StarLAN.host[5].eth[0].mac droppedPkIfaceDown:count 0
attr interpolationmode none
attr source dropPkIfaceDown
attr title "packets dropped/interface down, count"
scalar StarLAN.host[5].eth[0].mac droppedPkIfaceDown:sum(packetBytes) 0
attr interpolationmode none
attr source dropPkIfaceDown
attr title "packets dropped/interface down, sum(packetBytes)"
scalar StarLAN.host[5].eth[0].mac rxPkOk:count 1502
attr interpolationmode none
attr source rxPkOk
attr title "packets received OK, count"
scalar StarLAN.host[5].eth[0].mac rxPkOk:sum(packetBytes) 1060476
attr interpolationmode none
attr source rxPkOk
attr title "packets received OK, sum(packetBytes)"
scalar StarLAN.host[5].eth[0].mac passedUpPk:count 1502
attr interpolationmode none
attr source packetSentToUpper
attr title "packets passed to higher layer, count"
scalar StarLAN.host[5].eth[0].mac passedUpPk:sum(packetBytes) 1060476
attr interpolationmode none
attr source packetSentToUpper
attr title "packets passed to higher layer, sum(packetBytes)"
scalar StarLAN.host[5].eth[0].encap pauseSent:count 0
attr title "pause sent, count"
scalar StarLAN.host[5].eth[0].encap pauseSent:sum 0
attr title "pause sent, sum"
scalar StarLAN.host[5].eth[0].encap decapPk:count 1502
attr interpolationmode none
attr source decapPk
attr title "packets decapsulated, count"
scalar StarLAN.host[5].eth[0].encap decapPk:sum(packetBytes) 1033440
attr interpolationmode none
attr source decapPk
attr title "packets decapsulated, sum(packetBytes)"
scalar StarLAN.host[5].eth[0].encap encapPk:count 1502
attr interpolationmode none
attr source encapPk
attr title "packets encapsulated, count"
scalar StarLAN.host[5].eth[0].encap encapPk:sum(packetBytes) 1033440
attr interpolationmode none
attr source encapPk
attr title "packets encapsulated, sum(packetBytes)"
scalar StarLAN.host[5].pingApp[0] "Pings sent" 374
scalar StarLAN.host[5].pingApp[0] "ping loss rate (%)" 0
scalar StarLAN.host[5].pingApp[0] "ping out-of-order rate (%)" 0
scalar StarLAN.host[5].pingApp[0] pingRxSeq:count 284
attr interpolationmode none
attr title "ping rx seq, count"
scalar StarLAN.host[5].pingApp[0] pingTxSeq:count 284
attr interpolationmode none
attr title "ping tx seq, count"
scalar StarLAN.host[5].pingApp[0] numOutOfOrderArrivals:last nan
attr interpolationmode none
attr title "ping out-of-order arrivals, last"
scalar StarLAN.host[5].pingApp[0] numLost:last nan
attr interpolationmode none
attr title "pings lost, last"
scalar StarLAN.host[5].pingApp[0] rtt:mean 0.0040623585846345
attr interpolationmode none
attr title "ping round-trip time, mean"
attr unit s
scalar StarLAN.host[5].pingApp[1] "Pings sent" 384
scalar StarLAN.host[5].pingApp[1] "ping loss rate (%)" 0
scalar StarLAN.host[5].pingApp[1] "ping out-of-order rate (%)" 0
scalar StarLAN.host[5].pingApp[1] pingRxSeq:count 284
attr interpolationmode none
attr title "ping rx seq, count"
scalar StarLAN.host[5].pingApp[1] pingTxSeq:count 284
attr interpolationmode none
attr title "ping tx seq, count"
scalar StarLAN.host[5].pingApp[1] numOutOfOrderArrivals:last nan
attr interpolationmode none
attr title "ping out-of-order arrivals, last"
scalar StarLAN.host[5].pingApp[1] numLost:last nan
attr interpolationmode none
attr title "pings lost, last"
scalar StarLAN.host[5].pingApp[1] rtt:mean 0.0022988259322392
attr interpolationmode none
attr title "ping round-trip time, mean"
attr unit s
scalar StarLAN.host[6].networkLayer.arp sentReply:count 0
attr title "ARP replies sent, count"
scalar StarLAN.host[6].networkLayer.arp sentReq:count 0
attr title "ARP request sent, count"
scalar StarLAN.host[6].networkLayer.arp failedARPResolution:count 0
attr title "ARP failed resolutions, count"
scalar StarLAN.host[6].networkLayer.arp completedARPResolution:count 0
attr title "ARP completed resolutions, count"
scalar StarLAN.host[6].networkLayer.arp initiatedARPResolution:count 0
attr title "ARP initiated resolutions, count"
scalar StarLAN.host[6].lo0.lo droppedPkBitError:count 0
attr interpolationmode none
attr source dropPkBitError
attr title "packets dropped/bit error, count"
scalar StarLAN.host[6].lo0.lo droppedPkBitError:sum(packetBytes) 0
attr interpolationmode none
attr source dropPkBitError
attr title "packets dropped/bit error, sum(packetBytes)"
scalar StarLAN.host[6].lo0.lo rcvdPkFromHL:count 206
attr interpolationmode none
attr source packetReceivedFromUpper
attr title "packets received from higher layer, count"
scalar StarLAN.host[6].lo0.lo rcvdPkFromHL:sum(packetBytes) 107666
attr interpolationmode none
attr source packetReceivedFromUpper
attr title "packets received from higher layer, sum(packetBytes)"
scalar StarLAN.host[6].lo0.lo passedUpPk:count 206
attr interpolationmode none
attr source packetSentToUpper
attr title "packets passed to higher layer, count"
scalar StarLAN.host[6].lo0.lo passedUpPk:sum(packetBytes) 107666
attr interpolationmode none
attr source packetSentToUpper
attr title "packets passed to higher layer, sum(packetBytes)"
scalar StarLAN.host[6].eth[0].queue.pauseQueue queueLength:max nan
attr interpolationmode sample-hold
attr title "queue length, max"
scalar StarLAN.host[6].eth[0].queue.pauseQueue queueLength:timeavg nan
attr interpolationmode sample-hold
attr title "queue length, timeavg"
statistic StarLAN.host[6].eth[0].queue.pauseQueue queueingTime:histogram
field count 0
field mean nan
field stddev nan
field min nan
field max nan
field sum 0
field sqrsum 0
attr interpolationmode none
attr title "queueing time, histogram"
bin	-inf	0
bin	-0.5	0
bin	-0.46666666666667	0
bin	-0.43333333333333	0
bin	-0.4	0
bin	-0.36666666666667	0
bin	-0.33333333333333	0
bin	-0.3	0
bin	-0.26666666666667	0
bin	-0.23333333333333	0
bin	-0.2	0
bin	-0.16666666666667	0
bin	-0.13333333333333	0
bin	-0.1	0
bin	-0.066666666666667	0
bin	-0.033333333333333	0
bin	0	0
bin	0.033333333333333	0
bin	0.066666666666667	0
bin	0.1	0
bin	0.13333333333333	0
bin	0.16666666666667	0
bin	0.2	0
bin	0.23333333333333	0
bin	0.26666666666667	0
bin	0.3	0
bin	0.33333333333333	0
bin	0.36666666666667	0
bin	0.4	0
bin	0.43333333333333	0
bin	0.46666666666667	0
bin	0.5	0
scalar StarLAN.host[6].eth[0].queue.pauseQueue dropPk:count 0
attr interpolationmode none
attr source dropPkByQueue
attr title "dropped packets, count"
scalar StarLAN.host[6].eth[0].queue.pauseQueue dropPk:sum(packetBytes) 0
attr interpolationmode none
attr source dropPkByQueue
attr title "dropped packets, sum(packetBytes)"
scalar StarLAN.host[6].eth[0].queue.pauseQueue rcvdPk:count 0
attr interpolationmode none
attr title "received packets, count"
scalar StarLAN.host[6].eth[0].queue.pauseQueue rcvdPk:sum(packetBytes) 0
attr interpolationmode none
attr title "received packets, sum(packetBytes)"
scalar StarLAN.host[6].eth[0].queue.dataQueue queueLength:max 3
attr interpolationmode sample-hold
attr title "queue length, max"
scalar StarLAN.host[6].eth[0].queue.dataQueue queueLength:timeavg 0.026266696321279
attr interpolationmode sample-hold
attr title "queue length, timeavg"
statistic StarLAN.host[6].eth[0].queue.dataQueue queueingTime:histogram
field count 1495
field mean 0.00026402697782743
field stddev 0.00039640425833356
field min 0
field max 0.001935055508
field sum 0.394720331852
field sqrsum 0.00033897850232725
attr interpolationmode none
attr title "queueing time, histogram"
bin	-inf	0
bin	-0.000692848516	0
bin	-0.00060046871386667	0
bin	-0.00050808891173333	0
bin	-0.0004157091096	0
bin	-0.00032332930746667	0
bin	-0.00023094950533333	0
bin	-0.0001385697032	0
bin	-4.6189901066667e-005	1019
bin	4.6189901066667e-005	2
bin	0.0001385697032	6
bin	0.00023094950533333	7
bin	0.00032332930746667	4
bin	0.0004157091096	4
bin	0.00050808891173333	3
bin	0.00060046871386667	2
bin	0.000692848516	4
bin	0.00078522831813333	427
bin	0.00087760812026667	2
bin	0.0009699879224	4
bin	0.0010623677245333	3
bin	0.0011547475266667	2
bin	0.0012471273288	0
bin	0.0013395071309333	2
bin	0.0014318869330667	1
bin	0.0015242667352	2
bin	0.0016166465373333	0
bin	0.0017090263394667	0
bin	0.0018014061416	0
bin	0.0018937859437333	1
bin	0.0019861657458667	0
bin	0.002078545548	0
scalar StarLAN.host[6].eth[0].queue.dataQueue dropPk:count 0
attr interpolationmode none
attr source dropPkByQueue
attr title "dropped packets, count"
scalar StarLAN.host[6].eth[0].queue.dataQueue dropPk:sum(packetBytes) 0
attr interpolationmode none
attr source dropPkByQueue
attr title "dropped packets, sum(packetBytes)"
scalar StarLAN.host[6].eth[0].queue.dataQueue rcvdPk:count 1494
attr interpolationmode none
attr title "received packets, count"
scalar StarLAN.host[6].eth[0].queue.dataQueue rcvdPk:sum(packetBytes) 941935
attr interpolationmode none
attr title "received packets, sum(packetBytes)"
scalar StarLAN.host[6].eth[0].mac "simulated time" 20
scalar StarLAN.host[6].eth[0].mac full-duplex 1
scalar StarLAN.host[6].eth[0].mac "frames/sec sent" 98.5
scalar StarLAN.host[6].eth[0].mac "frames/sec rcvd" 100.3
scalar StarLAN.host[6].eth[0].mac "bits/sec sent" 495252.4
scalar StarLAN.host[6].eth[0].mac "bits/sec rcvd" 496174
scalar StarLAN.host[6].eth[0].mac "rx channel idle (%)" 94.974068
scalar StarLAN.host[6].eth[0].mac "rx channel utilization (%)" 5.025932
scalar StarLAN.host[6].eth[0].mac rxPkFromHL:count 1495
attr interpolationmode none
attr source rxPkFromHL
attr title "packet bytes from higher layer, count"
scalar StarLAN.host[6].eth[0].mac rxPkFromHL:sum(packetBytes) 942441
attr interpolationmode none
attr source rxPkFromHL
attr title "packet bytes from higher layer, sum(packetBytes)"
scalar StarLAN.host[6].eth[0].mac rxPausePkUnits:count 0
attr interpolationmode none
attr title "pause units received, count"
scalar StarLAN.host[6].eth[0].mac rxPausePkUnits:sum 0
attr interpolationmode none
attr title "pause units received, sum"
scalar StarLAN.host[6].eth[0].mac txPausePkUnits:count 0
attr interpolationmode none
attr title "pause units sent, count"
scalar StarLAN.host[6].eth[0].mac txPausePkUnits:sum 0
attr interpolationmode none
attr title "pause units sent, sum"
scalar StarLAN.host[6].eth[0].mac txPk:count 1496
attr interpolationmode none
attr source txPk
attr title "packets transmitted, count"
scalar StarLAN.host[6].eth[0].mac txPk:sum(packetBytes) 943479
attr interpolationmode none
attr source txPk
attr title "packets transmitted, sum(packetBytes)"
scalar StarLAN.host[6].eth[0].mac droppedPkNotForUs:count 0
attr interpolationmode none
attr source dropPkNotForUs
attr title "packets dropped/not for us, count"
scalar StarLAN.host[6].eth[0].mac droppedPkNotForUs:sum(packetBytes) 0
attr interpolationmode none
attr source dropPkNotForUs
attr title "packets dropped/not for us, sum(packetBytes)"
scalar StarLAN.host[6].eth[0].mac droppedPkBitError:count 0
attr interpolationmode none
attr source dropPkBitError
attr title "packets dropped/bit error, count"
scalar StarLAN.host[6].eth[0].mac droppedPkBitError:sum(packetBytes) 0
attr interpolationmode none
attr source dropPkBitError
attr title "packets dropped/bit error, sum(packetBytes)"
scalar StarLAN.host[6].eth[0].mac droppedPkIfaceDown:count 0
attr interpolationmode none
attr source dropPkIfaceDown
attr title "packets dropped/interface down, count"
scalar StarLAN.host[6].eth[0].mac droppedPkIfaceDown:sum(packetBytes) 0
attr interpolationmode none
attr source dropPkIfaceDown
attr title "packets dropped/interface down, sum(packetBytes)"
scalar StarLAN.host[6].eth[0].mac rxPkOk:count 1494
attr interpolationmode none
attr source rxPkOk
attr title "packets received OK, count"
scalar StarLAN.host[6].eth[0].mac rxPkOk:sum(packetBytes) 941935
attr interpolationmode none
attr source rxPkOk
attr title "packets received OK, sum(packetBytes)"
scalar StarLAN.host[6].eth[0].mac passedUpPk:count 1494
attr interpolationmode none
attr source packetSentToUpper
attr title "packets passed to higher layer, count"
scalar StarLAN.host[6].eth[0].mac passedUpPk:sum(packetBytes) 941935
attr interpolationmode none
attr source packetSentToUpper
attr title "packets passed to higher layer, sum(packetBytes)"
scalar StarLAN.host[6].eth[0].encap pauseSent:count 0
attr title "pause sent, count"
scalar StarLAN.host[6].eth[0].encap pauseSent:sum 0
attr title "pause sent, sum"
scalar StarLAN.host[6].eth[0].encap decapPk:count 1494
attr interpolationmode none
attr source decapPk
attr title "packets decapsulated, count"
scalar StarLAN.host[6].eth[0].encap decapPk:sum(packetBytes) 915043
attr interpolationmode none
attr source decapPk
attr title "packets decapsulated, sum(packetBytes)"
scalar StarLAN.host[6].eth[0].encap encapPk:count 1494
attr interpolationmode none
attr source encapPk
attr title "packets encapsulated, count"
scalar StarLAN.host[6].eth[0].encap encapPk:sum(packetBytes) 915043
attr interpolationmode none
attr source encapPk
attr title "packets encapsulated, sum(packetBytes)"
scalar StarLAN.host[6].pingApp[0] "Pings sent" 391
scalar StarLAN.host[6].pingApp[0] "ping loss rate (%)" 0
scalar StarLAN.host[6].pingApp[0] "ping out-of-order rate (%)" 0
scalar StarLAN.host[6].pingApp[0] pingRxSeq:count 297
attr interpolationmode none
attr title "ping rx seq, count"
scalar StarLAN.host[6].pingApp[0] pingTxSeq:count 297
attr interpolationmode none
attr title "ping tx seq, count"
scalar StarLAN.host[6].pingApp[0] numOutOfOrderArrivals:last nan
attr interpolationmode none
attr title "ping out-of-order arrivals, last"
scalar StarLAN.host[6].pingApp[0] numLost:last nan
attr interpolationmode none
attr title "pings lost, last"
scalar StarLAN.host[6].pingApp[0] rtt:mean 0.0014989795623647
attr interpolationmode none
attr title "ping round-trip time, mean"
attr unit s
scalar StarLAN.host[6].pingApp[1] "Pings sent" 387
scalar StarLAN.host[6].pingApp[1] "ping loss rate (%)" 0
scalar StarLAN.host[6].pingApp[1] "ping out-of-order rate (%)" 0
scalar StarLAN.host[6].pingApp[1] pingRxSeq:count 298
attr interpolationmode none
attr title "ping rx seq, count"
scalar StarLAN.host[6].pingApp[1] pingTxSeq:count 298
attr interpolationmode none
attr title "ping tx seq, count"
scalar StarLAN.host[6].pingApp[1] numOutOfOrderArrivals:last nan
attr interpolationmode none
attr title "ping out-of-order arrivals, last"
scalar StarLAN.host[6].pingApp[1] numLost:last nan
attr interpolationmode none
attr title "pings lost, last"
scalar StarLAN.host[6].pingApp[1] rtt:mean 0.0036809621812862
attr interpolationmode none
attr title "ping round-trip time, mean"
attr unit s
scalar StarLAN.host[7].networkLayer.arp sentReply:count 0
attr title "ARP replies sent, count"
scalar StarLAN.host[7].networkLayer.arp sentReq:count 0
attr title "ARP request sent, count"
scalar StarLAN.host[7].networkLayer.arp failedARPResolution:count 0
attr title "ARP failed resolutions, count"
scalar StarLAN.host[7].networkLayer.arp completedARPResolution:count 0
attr title "ARP completed resolutions, count"
scalar StarLAN.host[7].networkLayer.arp initiatedARPResolution:count 0
attr title "ARP initiated resolutions, count"
scalar StarLAN.host[7].lo0.lo droppedPkBitError:count 0
attr interpolationmode none
attr source dropPkBitError
attr title "packets dropped/bit error, count"
scalar StarLAN.host[7].lo0.lo droppedPkBitError:sum(packetBytes) 0
attr interpolationmode none
attr source dropPkBitError
attr title "packets dropped/bit error, sum(packetBytes)"
scalar StarLAN.host[7].lo0.lo rcvdPkFromHL:count 88
attr interpolationmode none
attr source packetReceivedFromUpper
attr title "packets received from higher layer, count"
scalar StarLAN.host[7].lo0.lo rcvdPkFromHL:sum(packetBytes) 66352
attr interpolationmode none
attr source packetReceivedFromUpper
attr title "packets received from higher layer, sum(packetBytes)"
scalar StarLAN.host[7].lo0.lo passedUpPk:count 88
attr interpolationmode none
attr source packetSentToUpper
attr title "packets passed to higher layer, count"
scalar StarLAN.host[7].lo0.lo passedUpPk:sum(packetBytes) 66352
attr interpolationmode none
attr source packetSentToUpper
attr title "packets passed to higher layer, sum(packetBytes)"
scalar StarLAN.host[7].eth[0].queue.pauseQueue queueLength:max nan
attr interpolationmode sample-hold
attr title "queue length, max"
scalar StarLAN.host[7].eth[0].queue.pauseQueue queueLength:timeavg nan
attr interpolationmode sample-hold
attr title "queue length, timeavg"
statistic StarLAN.host[7].eth[0].queue.pauseQueue queueingTime:histogram
field count 0
field mean nan
field stddev nan
field min nan
field max nan
field sum 0
field sqrsum 0
attr interpolationmode none
attr title "queueing time, histogram"
bin	-inf	0
bin	-0.5	0
bin	-0.46666666666667	0
bin	-0.43333333333333	0
bin	-0.4	0
bin	-0.36666666666667	0
bin	-0.33333333333333	0
bin	-0.3	0
bin	-0.26666666666667	0
bin	-0.23333333333333	0
bin	-0.2	0
bin	-0.16666666666667	0
bin	-0.13333333333333	0
bin	-0.1	0
bin	-0.066666666666667	0
bin	-0.033333333333333	0
bin	0	0
bin	0.033333333333333	0
bin	0.066666666666667	0
bin	0.1	0
bin	0.13333333333333	0
bin	0.16666666666667	0
bin	0.2	0
bin	0.23333333333333	0
bin	0.26666666666667	0
bin	0.3	0
bin	0.33333333333333	0
bin	0.36666666666667	0
bin	0.4	0
bin	0.43333333333333	0
[...]
attr interpolationmode none
attr title "received packets, sum(packetBytes)"
scalar StarLAN.router.eth[7].queue.dataQueue queueLength:max 2
attr interpolationmode sample-hold
attr title "queue length, max"
scalar StarLAN.router.eth[7].queue.dataQueue queueLength:timeavg 0.0078198183668498
attr interpolationmode sample-hold
attr title "queue length, timeavg"
statistic StarLAN.router.eth[7].queue.dataQueue queueingTime:histogram
field count 1249
field mean 9.3902423923138e-005
field stddev 0.00021018085115933
field min 0
field max 0.001140266135
field sum 0.11728412748
field sqrsum 6.6144899620269e-005
attr interpolationmode none
attr title "queueing time, histogram"
bin	-inf	0
bin	-0.000356	0
bin	-0.00030853333333333	0
bin	-0.00026106666666667	0
bin	-0.0002136	0
bin	-0.00016613333333333	0
bin	-0.00011866666666667	0
bin	-7.12e-005	0
bin	-2.3733333333333e-005	1009
bin	2.3733333333333e-005	5
bin	7.12e-005	4
bin	0.00011866666666667	3
bin	0.00016613333333333	4
bin	0.0002136	4
bin	0.00026106666666667	3
bin	0.00030853333333333	22
bin	0.000356	5
bin	0.00040346666666667	71
bin	0.00045093333333333	35
bin	0.0004984	27
bin	0.00054586666666667	3
bin	0.00059333333333333	4
bin	0.0006408	1
bin	0.00068826666666667	32
bin	0.00073573333333333	4
bin	0.0007832	2
bin	0.00083066666666667	3
bin	0.00087813333333333	1
bin	0.0009256	1
bin	0.00097306666666667	0
bin	0.0010205333333333	3
bin	0.001068	3
scalar StarLAN.router.eth[7].queue.dataQueue dropPk:count 0
attr interpolationmode none
attr source dropPkByQueue
attr title "dropped packets, count"
scalar StarLAN.router.eth[7].queue.dataQueue dropPk:sum(packetBytes) 0
attr interpolationmode none
attr source dropPkByQueue
attr title "dropped packets, sum(packetBytes)"
scalar StarLAN.router.eth[7].queue.dataQueue rcvdPk:count 1249
attr interpolationmode none
attr title "received packets, count"
scalar StarLAN.router.eth[7].queue.dataQueue rcvdPk:sum(packetBytes) 921088
attr interpolationmode none
attr title "received packets, sum(packetBytes)"
scalar StarLAN.router.eth[7].mac "simulated time" 20
scalar StarLAN.router.eth[7].mac full-duplex 1
scalar StarLAN.router.eth[7].mac "frames/sec sent" 84.3
scalar StarLAN.router.eth[7].mac "frames/sec rcvd" 82.5
scalar StarLAN.router.eth[7].mac "bits/sec sent" 485760.4
scalar StarLAN.router.eth[7].mac "bits/sec rcvd" 484838.8
scalar StarLAN.router.eth[7].mac "rx channel idle (%)" 95.098812
scalar StarLAN.router.eth[7].mac "rx channel utilization (%)" 4.901188
scalar StarLAN.router.eth[7].mac "rx channel collision (%)" 0
scalar StarLAN.router.eth[7].mac collisions 0
scalar StarLAN.router.eth[7].mac backoffs 0
scalar StarLAN.router.eth[7].mac backoff:count 0
attr interpolationmode none
attr title "backoff, count"
scalar StarLAN.router.eth[7].mac collision:count 0
attr interpolationmode none
attr title "collision, count"
scalar StarLAN.router.eth[7].mac rxPkFromHL:count 1249
attr interpolationmode none
attr source rxPkFromHL
attr title "packet bytes from higher layer, count"
scalar StarLAN.router.eth[7].mac rxPkFromHL:sum(packetBytes) 921088
attr interpolationmode none
attr source rxPkFromHL
attr title "packet bytes from higher layer, sum(packetBytes)"
scalar StarLAN.router.eth[7].mac rxPausePkUnits:count 0
attr interpolationmode none
attr title "pause units received, count"
scalar StarLAN.router.eth[7].mac rxPausePkUnits:sum 0
attr interpolationmode none
attr title "pause units received, sum"
scalar StarLAN.router.eth[7].mac txPausePkUnits:count 0
attr interpolationmode none
attr title "pause units sent, count"
scalar StarLAN.router.eth[7].mac txPausePkUnits:sum 0
attr interpolationmode none
attr title "pause units sent, sum"
scalar StarLAN.router.eth[7].mac txPk:count 1249
attr interpolationmode none
attr source txPk
attr title "packets transmitted, count"
scalar StarLAN.router.eth[7].mac txPk:sum(packetBytes) 921088
attr interpolationmode none
attr source txPk
attr title "packets transmitted, sum(packetBytes)"
scalar StarLAN.router.eth[7].mac droppedPkNotForUs:count 0
attr interpolationmode none
attr source dropPkNotForUs
attr title "packets dropped/not for us, count"
scalar StarLAN.router.eth[7].mac droppedPkNotForUs:sum(packetBytes) 0
attr interpolationmode none
attr source dropPkNotForUs
attr title "packets dropped/not for us, sum(packetBytes)"
scalar StarLAN.router.eth[7].mac droppedPkBitError:count 0
attr interpolationmode none
attr source dropPkBitError
attr title "packets dropped/bit error, count"
scalar StarLAN.router.eth[7].mac droppedPkBitError:sum(packetBytes) 0
attr interpolationmode none
attr source dropPkBitError
attr title "packets dropped/bit error, sum(packetBytes)"
scalar StarLAN.router.eth[7].mac droppedPkIfaceDown:count 0
attr interpolationmode none
attr source dropPkIfaceDown
attr title "packets dropped/interface down, count"
scalar StarLAN.router.eth[7].mac droppedPkIfaceDown:sum(packetBytes) 0
attr interpolationmode none
attr source dropPkIfaceDown
attr title "packets dropped/interface down, sum(packetBytes)"
scalar StarLAN.router.eth[7].mac rxPkOk:count 1249
attr interpolationmode none
attr source rxPkOk
attr title "packets received OK, count"
scalar StarLAN.router.eth[7].mac rxPkOk:sum(packetBytes) 921088
attr interpolationmode none
attr source rxPkOk
attr title "packets received OK, sum(packetBytes)"
scalar StarLAN.router.eth[7].mac passedUpPk:count 1249
attr interpolationmode none
attr source packetSentToUpper
attr title "packets passed to higher layer, count"
scalar StarLAN.router.eth[7].mac passedUpPk:sum(packetBytes) 921088
attr interpolationmode none
attr source packetSentToUpper
attr title "packets passed to higher layer, sum(packetBytes)"
scalar StarLAN.router.eth[8].queue.pauseQueue queueLength:max nan
attr interpolationmode sample-hold
attr title "queue length, max"
scalar StarLAN.router.eth[8].queue.pauseQueue queueLength:timeavg nan
attr interpolationmode sample-hold
attr title "queue length, timeavg"
statistic StarLAN.router.eth[8].queue.pauseQueue queueingTime:histogram
field count 0
field mean nan
field stddev nan
field min nan
field max nan
field sum 0
field sqrsum 0
attr interpolationmode none
attr title "queueing time, histogram"
bin	-inf	0
bin	-0.5	0
bin	-0.46666666666667	0
bin	-0.43333333333333	0
bin	-0.4	0
bin	-0.36666666666667	0
bin	-0.33333333333333	0
bin	-0.3	0
bin	-0.26666666666667	0
bin	-0.23333333333333	0
bin	-0.2	0
bin	-0.16666666666667	0
bin	-0.13333333333333	0
bin	-0.1	0
bin	-0.066666666666667	0
bin	-0.033333333333333	0
bin	0	0
bin	0.033333333333333	0
bin	0.066666666666667	0
bin	0.1	0
bin	0.13333333333333	0
bin	0.16666666666667	0
bin	0.2	0
bin	0.23333333333333	0
bin	0.26666666666667	0
bin	0.3	0
bin	0.33333333333333	0
bin	0.36666666666667	0
bin	0.4	0
bin	0.43333333333333	0
bin	0.46666666666667	0
bin	0.5	0
scalar StarLAN.router.eth[8].queue.pauseQueue dropPk:count 0
attr interpolationmode none
attr source dropPkByQueue
attr title "dropped packets, count"
scalar StarLAN.router.eth[8].queue.pauseQueue dropPk:sum(packetBytes) 0
attr interpolationmode none
attr source dropPkByQueue
attr title "dropped packets, sum(packetBytes)"
scalar StarLAN.router.eth[8].queue.pauseQueue rcvdPk:count 0
attr interpolationmode none
attr title "received packets, count"
scalar StarLAN.router.eth[8].queue.pauseQueue rcvdPk:sum(packetBytes) 0
attr interpolationmode none
attr title "received packets, sum(packetBytes)"
scalar StarLAN.router.eth[8].queue.dataQueue queueLength:max 3
attr interpolationmode sample-hold
attr title "queue length, max"
scalar StarLAN.router.eth[8].queue.dataQueue queueLength:timeavg 0.02311958574011
attr interpolationmode sample-hold
attr title "queue length, timeavg"
statistic StarLAN.router.eth[8].queue.dataQueue queueingTime:histogram
field count 1751
field mean 0.00019800691215363
field stddev 0.00025807695008839
field min 0
field max 0.001673152869
field sum 0.346710103181
field sqrsum 0.00018520749323545
attr interpolationmode none
attr title "queueing time, histogram"
bin	-inf	0
bin	-0.0007896	0
bin	-0.00068432	0
bin	-0.00057904	0
bin	-0.00047376	0
bin	-0.00036848	0
bin	-0.0002632	0
bin	-0.00015792	0
bin	-5.264e-005	1010
bin	5.264e-005	9
bin	0.00015792	6
bin	0.0002632	31
bin	0.00036848	555
bin	0.00047376	64
bin	0.00057904	7
bin	0.00068432	36
bin	0.0007896	11
bin	0.00089488	4
bin	0.00100016	1
bin	0.00110544	2
bin	0.00121072	7
bin	0.001316	4
bin	0.00142128	0
bin	0.00152656	2
bin	0.00163184	2
bin	0.00173712	0
bin	0.0018424	0
bin	0.00194768	0
bin	0.00205296	0
bin	0.00215824	0
bin	0.00226352	0
bin	0.0023688	0
scalar StarLAN.router.eth[8].queue.dataQueue dropPk:count 0
attr interpolationmode none
attr source dropPkByQueue
attr title "dropped packets, count"
scalar StarLAN.router.eth[8].queue.dataQueue dropPk:sum(packetBytes) 0
attr interpolationmode none
attr source dropPkByQueue
attr title "dropped packets, sum(packetBytes)"
scalar StarLAN.router.eth[8].queue.dataQueue rcvdPk:count 1751
attr interpolationmode none
attr title "received packets, count"
scalar StarLAN.router.eth[8].queue.dataQueue rcvdPk:sum(packetBytes) 1303982
attr interpolationmode none
attr title "received packets, sum(packetBytes)"
scalar StarLAN.router.eth[8].mac "simulated time" 20
scalar StarLAN.router.eth[8].mac full-duplex 1
scalar StarLAN.router.eth[8].mac "frames/sec sent" 115.95
scalar StarLAN.router.eth[8].mac "frames/sec rcvd" 114.15
scalar StarLAN.router.eth[8].mac "bits/sec sent" 676293.2
scalar StarLAN.router.eth[8].mac "bits/sec rcvd" 675371.6
scalar StarLAN.router.eth[8].mac "rx channel idle (%)" 93.173228
scalar StarLAN.router.eth[8].mac "rx channel utilization (%)" 6.826772
scalar StarLAN.router.eth[8].mac "rx channel collision (%)" 0
scalar StarLAN.router.eth[8].mac collisions 0
scalar StarLAN.router.eth[8].mac backoffs 0
scalar StarLAN.router.eth[8].mac backoff:count 0
attr interpolationmode none
attr title "backoff, count"
scalar StarLAN.router.eth[8].mac collision:count 0
attr interpolationmode none
attr title "collision, count"
scalar StarLAN.router.eth[8].mac rxPkFromHL:count 1751
attr interpolationmode none
attr source rxPkFromHL
attr title "packet bytes from higher layer, count"
scalar StarLAN.router.eth[8].mac rxPkFromHL:sum(packetBytes) 1303982
attr interpolationmode none
attr source rxPkFromHL
attr title "packet bytes from higher layer, sum(packetBytes)"
scalar StarLAN.router.eth[8].mac rxPausePkUnits:count 0
attr interpolationmode none
attr title "pause units received, count"
scalar StarLAN.router.eth[8].mac rxPausePkUnits:sum 0
attr interpolationmode none
attr title "pause units received, sum"
scalar StarLAN.router.eth[8].mac txPausePkUnits:count 0
attr interpolationmode none
attr title "pause units sent, count"
scalar StarLAN.router.eth[8].mac txPausePkUnits:sum 0
attr interpolationmode none
attr title "pause units sent, sum"
scalar StarLAN.router.eth[8].mac txPk:count 1751
attr interpolationmode none
attr source txPk
attr title "packets transmitted, count"
scalar StarLAN.router.eth[8].mac txPk:sum(packetBytes) 1303982
attr interpolationmode none
attr source txPk
attr title "packets transmitted, sum(packetBytes)"
scalar StarLAN.router.eth[8].mac droppedPkNotForUs:count 0
attr interpolationmode none
attr source dropPkNotForUs
attr title "packets dropped/not for us, count"
scalar StarLAN.router.eth[8].mac droppedPkNotForUs:sum(packetBytes) 0
attr interpolationmode none
attr source dropPkNotForUs
attr title "packets dropped/not for us, sum(packetBytes)"
scalar StarLAN.router.eth[8].mac droppedPkBitError:count 0
attr interpolationmode none
attr source dropPkBitError
attr title "packets dropped/bit error, count"
scalar StarLAN.router.eth[8].mac droppedPkBitError:sum(packetBytes) 0
attr interpolationmode none
attr source dropPkBitError
attr title "packets dropped/bit error, sum(packetBytes)"
scalar StarLAN.router.eth[8].mac droppedPkIfaceDown:count 0
attr interpolationmode none
attr source dropPkIfaceDown
attr title "packets dropped/interface down, count"
scalar StarLAN.router.eth[8].mac droppedPkIfaceDown:sum(packetBytes) 0
attr interpolationmode none
attr source dropPkIfaceDown
attr title "packets dropped/interface down, sum(packetBytes)"
scalar StarLAN.router.eth[8].mac rxPkOk:count 1751
attr interpolationmode none
attr source rxPkOk
attr title "packets received OK, count"
scalar StarLAN.router.eth[8].mac rxPkOk:sum(packetBytes) 1303982
attr interpolationmode none
attr source rxPkOk
attr title "packets received OK, sum(packetBytes)"
scalar StarLAN.router.eth[8].mac passedUpPk:count 1751
attr interpolationmode none
attr source packetSentToUpper
attr title "packets passed to higher layer, count"
scalar StarLAN.router.eth[8].mac passedUpPk:sum(packetBytes) 1303982
attr interpolationmode none
attr source packetSentToUpper
attr title "packets passed to higher layer, sum(packetBytes)"
scalar StarLAN.router.eth[9].queue.pauseQueue queueLength:max nan
attr interpolationmode sample-hold
attr title "queue length, max"
scalar StarLAN.router.eth[9].queue.pauseQueue queueLength:timeavg nan
attr interpolationmode sample-hold
attr title "queue length, timeavg"
statistic StarLAN.router.eth[9].queue.pauseQueue queueingTime:histogram
field count 0
field mean nan
field stddev nan
field min nan
field max nan
field sum 0
field sqrsum 0
attr interpolationmode none
attr title "queueing time, histogram"
bin	-inf	0
bin	-0.5	0
bin	-0.46666666666667	0
bin	-0.43333333333333	0
bin	-0.4	0
bin	-0.36666666666667	0
bin	-0.33333333333333	0
bin	-0.3	0
bin	-0.26666666666667	0
bin	-0.23333333333333	0
bin	-0.2	0
bin	-0.16666666666667	0
bin	-0.13333333333333	0
bin	-0.1	0
bin	-0.066666666666667	0
bin	-0.033333333333333	0
bin	0	0
bin	0.033333333333333	0
bin	0.066666666666667	0
bin	0.1	0
bin	0.13333333333333	0
bin	0.16666666666667	0
bin	0.2	0
bin	0.23333333333333	0
bin	0.26666666666667	0
bin	0.3	0
bin	0.33333333333333	0
bin	0.36666666666667	0
bin	0.4	0
bin	0.43333333333333	0
bin	0.46666666666667	0
bin	0.5	0
scalar StarLAN.router.eth[9].queue.pauseQueue dropPk:count 0
attr interpolationmode none
attr source dropPkByQueue
attr title "dropped packets, count"
scalar StarLAN.router.eth[9].queue.pauseQueue dropPk:sum(packetBytes) 0
attr interpolationmode none
attr source dropPkByQueue
attr title "dropped packets, sum(packetBytes)"
scalar StarLAN.router.eth[9].queue.pauseQueue rcvdPk:count 0
attr interpolationmode none
attr title "received packets, count"
scalar StarLAN.router.eth[9].queue.pauseQueue rcvdPk:sum(packetBytes) 0
attr interpolationmode none
attr title "received packets, sum(packetBytes)"
scalar StarLAN.router.eth[9].queue.dataQueue queueLength:max 3
attr interpolationmode sample-hold
attr title "queue length, max"
scalar StarLAN.router.eth[9].queue.dataQueue queueLength:timeavg 0.0086895414074197
attr interpolationmode sample-hold
attr title "queue length, timeavg"
statistic StarLAN.router.eth[9].queue.dataQueue queueingTime:histogram
field count 1292
field mean 0.0001008745230178
field stddev 0.00022125912724961
field min 0
field max 0.00168009018
field sum 0.130329883739
field sqrsum 7.6348646253254e-005
attr interpolationmode none
attr title "queueing time, histogram"
bin	-inf	0
bin	-0.00084004509	0
bin	-0.000728039078	0
bin	-0.000616033066	0
bin	-0.000504027054	0
bin	-0.000392021042	0
bin	-0.00028001503	0
bin	-0.000168009018	0
bin	-5.6003006e-005	1031
bin	5.6003006e-005	12
bin	0.000168009018	9
bin	0.00028001503	21
bin	0.000392021042	128
bin	0.000504027054	32
bin	0.000616033066	42
bin	0.000728039078	8
bin	0.00084004509	2
bin	0.000952051102	2
bin	0.001064057114	0
bin	0.001176063126	3
bin	0.001288069138	0
bin	0.00140007515	0
bin	0.001512081162	1
bin	0.001624087174	1
bin	0.001736093186	0
bin	0.001848099198	0
bin	0.00196010521	0
bin	0.002072111222	0
bin	0.002184117234	0
bin	0.002296123246	0
bin	0.002408129258	0
bin	0.00252013527	0
scalar StarLAN.router.eth[9].queue.dataQueue dropPk:count 0
attr interpolationmode none
attr source dropPkByQueue
attr title "dropped packets, count"
scalar StarLAN.router.eth[9].queue.dataQueue dropPk:sum(packetBytes) 0
attr interpolationmode none
attr source dropPkByQueue
attr title "dropped packets, sum(packetBytes)"
scalar StarLAN.router.eth[9].queue.dataQueue rcvdPk:count 1292
attr interpolationmode none
attr title "received packets, count"
scalar StarLAN.router.eth[9].queue.dataQueue rcvdPk:sum(packetBytes) 799394
attr interpolationmode none
attr title "received packets, sum(packetBytes)"
scalar StarLAN.router.eth[9].mac "simulated time" 20
scalar StarLAN.router.eth[9].mac full-duplex 1
scalar StarLAN.router.eth[9].mac "frames/sec sent" 86.95
scalar StarLAN.router.eth[9].mac "frames/sec rcvd" 85.15
scalar StarLAN.router.eth[9].mac "bits/sec sent" 420067.2
scalar StarLAN.router.eth[9].mac "bits/sec rcvd" 419145.6
scalar StarLAN.router.eth[9].mac "rx channel idle (%)" 95.754048
scalar StarLAN.router.eth[9].mac "rx channel utilization (%)" 4.245952
scalar StarLAN.router.eth[9].mac "rx channel collision (%)" 0
scalar StarLAN.router.eth[9].mac collisions 0
scalar StarLAN.router.eth[9].mac backoffs 0
scalar StarLAN.router.eth[9].mac backoff:count 0
attr interpolationmode none
attr title "backoff, count"
scalar StarLAN.router.eth[9].mac collision:count 0
attr interpolationmode none
attr title "collision, count"
scalar StarLAN.router.eth[9].mac rxPkFromHL:count 1292
attr interpolationmode none
attr source rxPkFromHL
attr title "packet bytes from higher layer, count"
scalar StarLAN.router.eth[9].mac rxPkFromHL:sum(packetBytes) 799394
attr interpolationmode none
attr source rxPkFromHL
attr title "packet bytes from higher layer, sum(packetBytes)"
scalar StarLAN.router.eth[9].mac rxPausePkUnits:count 0
attr interpolationmode none
attr title "pause units received, count"
scalar StarLAN.router.eth[9].mac rxPausePkUnits:sum 0
attr interpolationmode none
attr title "pause units received, sum"
scalar StarLAN.router.eth[9].mac txPausePkUnits:count 0
attr interpolationmode none
attr title "pause units sent, count"
scalar StarLAN.router.eth[9].mac txPausePkUnits:sum 0
attr interpolationmode none
attr title "pause units sent, sum"
scalar StarLAN.router.eth[9].mac txPk:count 1292
attr interpolationmode none
attr source txPk
attr title "packets transmitted, count"
scalar StarLAN.router.eth[9].mac txPk:sum(packetBytes) 799394
attr interpolationmode none
attr source txPk
attr title "packets transmitted, sum(packetBytes)"
scalar StarLAN.router.eth[9].mac droppedPkNotForUs:count 0
attr interpolationmode none
attr source dropPkNotForUs
attr title "packets dropped/not for us, count"
scalar StarLAN.router.eth[9].mac droppedPkNotForUs:sum(packetBytes) 0
attr interpolationmode none
attr source dropPkNotForUs
attr title "packets dropped/not for us, sum(packetBytes)"
scalar StarLAN.router.eth[9].mac droppedPkBitError:count 0
attr interpolationmode none
attr source dropPkBitError
attr title "packets dropped/bit error, count"
scalar StarLAN.router.eth[9].mac droppedPkBitError:sum(packetBytes) 0
attr interpolationmode none
attr source dropPkBitError
attr title "packets dropped/bit error, sum(packetBytes)"
scalar StarLAN.router.eth[9].mac droppedPkIfaceDown:count 0
attr interpolationmode none
attr source dropPkIfaceDown
attr title "packets dropped/interface down, count"
scalar StarLAN.router.eth[9].mac droppedPkIfaceDown:sum(packetBytes) 0
attr interpolationmode none
attr source dropPkIfaceDown
attr title "packets dropped/interface down, sum(packetBytes)"
scalar StarLAN.router.eth[9].mac rxPkOk:count 1292
attr interpolationmode none
attr source rxPkOk
attr title "packets received OK, count"
scalar StarLAN.router.eth[9].mac rxPkOk:sum(packetBytes) 799394
attr interpolationmode none
attr source rxPkOk
attr title "packets received OK, sum(packetBytes)"
scalar StarLAN.router.eth[9].mac passedUpPk:count 1292
attr interpolationmode none
attr source packetSentToUpper
attr title "packets passed to higher layer, count"
scalar StarLAN.router.eth[9].mac passedUpPk:sum(packetBytes) 799394
attr interpolationmode none
attr source packetSentToUpper
attr title "packets passed to higher layer, sum(packetBytes)"

